xflr5 v6.60

Plane Name
T1-10.0 m/s-Panel-Inviscid
QInf  =   10.000000 m/s
Alpha =    0.000000
Beta  =    0.000°
Phi   =    0.000°
Ctrl  =    0.000
CL    =    0.370086
Cy    =    0.000000
Cd    =    0.004274     ICd   =    0.004274     PCd   =    0.000000
Cl   = 8.63623e-16
Cm   =     -0.6435
ICn   =   -0.000000     PCn   =   -0.000000 
XCP   =   12.585053     YCP   =   -0.000000     ZCP   =    0.932970  
XNP   =    0.000000
Bending = 64337.781762

Main Wing
  y-span        Chord      Ai         Cl        PCd          ICd        CmGeom    CmAirf@chord/4    XTrtop    XTrBot      XCP       BM
  -33.1683     2.8766    -5.278    0.164269    0.000000    0.015178   -1.381697   -0.049024     0.0000    0.0000    0.5105    0.0000
  -32.9417     2.9268    -3.408    0.259298    0.000000    0.015442   -1.953411   -0.076624     0.0000    0.0000    0.5328    0.7701
  -32.4901     3.0269    -2.168    0.327896    0.000000    0.012416   -2.278530   -0.087520     0.0000    0.0000    0.5139    9.6837
  -31.8166     3.1762    -1.451    0.371662    0.000000    0.009416   -2.420572   -0.095532     0.0000    0.0000    0.5039   46.8552
  -30.9257     3.3737    -1.043    0.397944    0.000000    0.007246   -2.394958   -0.100579     0.0000    0.0000    0.4988   148.2501
  -29.8235     3.6181    -0.798    0.411991    0.000000    0.005737   -2.254151   -0.103412     0.0000    0.0000    0.4966   367.3055
  -28.5177     3.9076    -0.652    0.417882    0.000000    0.004755   -2.049958   -0.104890     0.0000    0.0000    0.4965   775.6491
  -27.0170     4.2402    -0.571    0.418498    0.000000    0.004169   -1.819935   -0.105631     0.0000    0.0000    0.4978   1463.2275
  -25.3318     4.6138    -0.532    0.415659    0.000000    0.003860   -1.587366   -0.105981     0.0000    0.0000    0.5005   2537.8145
  -23.4736     5.0258    -0.521    0.410461    0.000000    0.003735   -1.365459   -0.106121     0.0000    0.0000    0.5042   4123.6292
  -21.4549     5.4733    -0.529    0.403527    0.000000    0.003729   -1.160925   -0.106148     0.0000    0.0000    0.5089   6358.7879
  -19.2898     5.9533    -0.550    0.395184    0.000000    0.003796   -0.976545   -0.106103     0.0000    0.0000    0.5146   9391.3730
  -16.9929     6.4625    -0.580    0.385574    0.000000    0.003904   -0.812851   -0.106016     0.0000    0.0000    0.5213   13374.0066
  -14.5798     6.9974    -0.616    0.374692    0.000000    0.004028   -0.669133   -0.105908     0.0000    0.0000    0.5294   18456.9507
  -12.0672     7.5544    -0.655    0.362417    0.000000    0.004143   -0.544099   -0.105797     0.0000    0.0000    0.5392   24779.8334
   -9.4722     8.1297    -0.693    0.348486    0.000000    0.004215   -0.436235   -0.105718     0.0000    0.0000    0.5513   32462.2203
   -6.8125     8.7194    -0.722    0.332457    0.000000    0.004190   -0.344111   -0.105746     0.0000    0.0000    0.5670   41593.2344
   -4.1062     9.3193    -0.715    0.313527    0.000000    0.003916   -0.266569   -0.106040     0.0000    0.0000    0.5885   52220.4573
   -1.3718     9.9255    -0.515    0.290042    0.000000    0.002616   -0.203464   -0.107314     0.0000    0.0000    0.6216   64337.7818
    1.3718     9.9255    -0.515    0.290042    0.000000    0.002616   -0.203464   -0.107314     0.0000    0.0000    0.6216   64337.7818
    4.1062     9.3193    -0.715    0.313527    0.000000    0.003916   -0.266569   -0.106040     0.0000    0.0000    0.5885   52220.4573
    6.8125     8.7194    -0.722    0.332457    0.000000    0.004190   -0.344111   -0.105746     0.0000    0.0000    0.5670   41593.2344
    9.4722     8.1297    -0.693    0.348486    0.000000    0.004215   -0.436235   -0.105718     0.0000    0.0000    0.5513   32462.2203
   12.0672     7.5544    -0.655    0.362417    0.000000    0.004143   -0.544099   -0.105797     0.0000    0.0000    0.5392   24779.8334
   14.5798     6.9974    -0.616    0.374692    0.000000    0.004028   -0.669133   -0.105908     0.0000    0.0000    0.5294   18456.9507
   16.9929     6.4625    -0.580    0.385574    0.000000    0.003904   -0.812851   -0.106016     0.0000    0.0000    0.5213   13374.0066
   19.2898     5.9533    -0.550    0.395184    0.000000    0.003796   -0.976545   -0.106103     0.0000    0.0000    0.5146   9391.3730
   21.4549     5.4733    -0.529    0.403527    0.000000    0.003729   -1.160925   -0.106148     0.0000    0.0000    0.5089   6358.7879
   23.4736     5.0258    -0.521    0.410461    0.000000    0.003735   -1.365459   -0.106121     0.0000    0.0000    0.5042   4123.6292
   25.3318     4.6138    -0.532    0.415659    0.000000    0.003860   -1.587366   -0.105981     0.0000    0.0000    0.5005   2537.8145
   27.0170     4.2402    -0.571    0.418498    0.000000    0.004169   -1.819935   -0.105631     0.0000    0.0000    0.4978   1463.2275
   28.5177     3.9076    -0.652    0.417882    0.000000    0.004755   -2.049958   -0.104890     0.0000    0.0000    0.4965   775.6491
   29.8235     3.6181    -0.798    0.411991    0.000000    0.005737   -2.254151   -0.103412     0.0000    0.0000    0.4966   367.3055
   30.9257     3.3737    -1.043    0.397944    0.000000    0.007246   -2.394958   -0.100579     0.0000    0.0000    0.4988   148.2501
   31.8166     3.1762    -1.451    0.371662    0.000000    0.009416   -2.420572   -0.095532     0.0000    0.0000    0.5039   46.8552
   32.4901     3.0269    -2.168    0.327896    0.000000    0.012416   -2.278530   -0.087520     0.0000    0.0000    0.5139    9.6837
   32.9417     2.9268    -3.408    0.259298    0.000000    0.015442   -1.953411   -0.076624     0.0000    0.0000    0.5328    0.7701
   33.1683     2.8766    -5.278    0.164269    0.000000    0.015178   -1.381697   -0.049024     0.0000    0.0000    0.5105    0.0000


Main Wing Cp Coefficients
 Panel     CtrlPt.x        CtrlPt.y        CtrlPt.z       Nx      Ny       Nz        Area       Cp
Main WingCp Coefficients
Strip 1
  13       2.259e+01      -3.316e+01       8.664e-01          -0.040          -0.045          -0.998       4.748e-03         -0.0331
  14       2.251e+01      -3.316e+01       8.794e-01          -0.193          -0.102          -0.976       1.426e-02          0.0632
  15       2.235e+01      -3.316e+01       8.955e-01          -0.040          -0.044          -0.998       2.237e-02          0.1309
  16       2.212e+01      -3.316e+01       8.833e-01           0.123           0.022          -0.992       2.972e-02          0.1433
  17       2.184e+01      -3.316e+01       8.342e-01           0.210           0.059          -0.976       3.578e-02          0.0890
  18       2.152e+01      -3.316e+01       7.692e-01           0.186           0.049          -0.981       3.901e-02         -0.0338
  19       2.118e+01      -3.316e+01       7.221e-01           0.086           0.001          -0.996       3.953e-02         -0.1272
  20       2.084e+01      -3.316e+01       7.053e-01           0.011          -0.037          -0.999       3.823e-02         -0.1450
  21       2.051e+01      -3.316e+01       7.105e-01          -0.045          -0.066          -0.997       3.492e-02         -0.1473
  22       2.023e+01      -3.316e+01       7.302e-01          -0.098          -0.095          -0.991       2.968e-02         -0.1592
  23       2.000e+01      -3.316e+01       7.609e-01          -0.178          -0.139          -0.974       2.287e-02         -0.1894
  24       1.984e+01      -3.316e+01       8.040e-01          -0.370          -0.248          -0.895       1.548e-02         -0.1424
  25       1.976e+01      -3.316e+01       8.661e-01          -0.773          -0.472          -0.425       1.084e-02          0.4646
  26       1.976e+01      -3.315e+01       9.399e-01          -0.773          -0.448           0.450       1.084e-02          0.1503
  27       1.984e+01      -3.315e+01       1.002e+00          -0.372          -0.200           0.907       1.549e-02         -0.6320
  28       2.000e+01      -3.315e+01       1.045e+00          -0.176          -0.086           0.981       2.285e-02         -0.4501
  29       2.023e+01      -3.315e+01       1.076e+00          -0.098          -0.041           0.994       2.965e-02         -0.3171
  30       2.051e+01      -3.315e+01       1.095e+00          -0.044          -0.011           0.999       3.488e-02         -0.2626
  31       2.084e+01      -3.315e+01       1.102e+00          -0.002           0.011           1.000       3.819e-02         -0.2312
  32       2.118e+01      -3.315e+01       1.097e+00           0.035           0.029           0.999       3.935e-02         -0.2122
  33       2.152e+01      -3.315e+01       1.078e+00           0.078           0.049           0.996       3.831e-02         -0.1987
  34       2.184e+01      -3.315e+01       1.044e+00           0.131           0.073           0.989       3.517e-02         -0.1793
  35       2.212e+01      -3.315e+01       9.989e-01           0.189           0.097           0.977       3.006e-02         -0.1606
  36       2.235e+01      -3.315e+01       9.494e-01           0.240           0.117           0.964       2.313e-02         -0.1522
  37       2.251e+01      -3.316e+01       9.069e-01           0.280           0.132           0.951       1.462e-02         -0.1653
  38       2.259e+01      -3.316e+01       8.772e-01           0.479           0.205           0.854       5.523e-03          0.0204
Strip 2
  39       2.251e+01      -3.293e+01       8.596e-01          -0.040          -0.045          -0.998       1.446e-02          0.0391
  40       2.243e+01      -3.293e+01       8.728e-01          -0.193          -0.102          -0.976       4.344e-02          0.1870
  41       2.226e+01      -3.293e+01       8.892e-01          -0.040          -0.044          -0.998       6.814e-02          0.2828
  42       2.203e+01      -3.293e+01       8.768e-01           0.123           0.022          -0.992       9.049e-02          0.2665
  43       2.174e+01      -3.293e+01       8.268e-01           0.210           0.059          -0.976       1.089e-01          0.1570
  44       2.142e+01      -3.293e+01       7.607e-01           0.186           0.049          -0.981       1.188e-01         -0.0280
  45       2.107e+01      -3.293e+01       7.128e-01           0.086           0.001          -0.996       1.204e-01         -0.1625
  46       2.072e+01      -3.293e+01       6.957e-01           0.011          -0.037          -0.999       1.164e-01         -0.1893
  47       2.039e+01      -3.293e+01       7.010e-01          -0.045          -0.066          -0.997       1.064e-01         -0.1911
  48       2.010e+01      -3.293e+01       7.210e-01          -0.098          -0.095          -0.991       9.038e-02         -0.2004
  49       1.987e+01      -3.293e+01       7.522e-01          -0.178          -0.139          -0.974       6.967e-02         -0.2151
  50       1.971e+01      -3.293e+01       7.961e-01          -0.370          -0.248          -0.895       4.715e-02         -0.1110
  51       1.963e+01      -3.293e+01       8.593e-01          -0.773          -0.472          -0.425       3.302e-02          0.5493
  52       1.963e+01      -3.293e+01       9.343e-01          -0.773          -0.448           0.450       3.301e-02          0.1464
  53       1.971e+01      -3.293e+01       9.977e-01          -0.372          -0.201           0.906       4.715e-02         -0.7428
  54       1.987e+01      -3.293e+01       1.042e+00          -0.176          -0.086           0.981       6.958e-02         -0.5688
  55       2.010e+01      -3.292e+01       1.073e+00          -0.098          -0.041           0.994       9.028e-02         -0.4184
  56       2.039e+01      -3.292e+01       1.092e+00          -0.044          -0.011           0.999       1.062e-01         -0.3444
  57       2.072e+01      -3.292e+01       1.100e+00          -0.002           0.011           1.000       1.163e-01         -0.3012
  58       2.107e+01      -3.292e+01       1.094e+00           0.035           0.029           0.999       1.198e-01         -0.2797
  59       2.142e+01      -3.292e+01       1.074e+00           0.078           0.049           0.996       1.167e-01         -0.2704
  60       2.174e+01      -3.293e+01       1.040e+00           0.131           0.073           0.989       1.071e-01         -0.2523
  61       2.203e+01      -3.293e+01       9.944e-01           0.189           0.097           0.977       9.155e-02         -0.2175
  62       2.226e+01      -3.293e+01       9.440e-01           0.240           0.117           0.964       7.043e-02         -0.1623
  63       2.243e+01      -3.293e+01       9.008e-01           0.280           0.132           0.951       4.454e-02         -0.1267
  64       2.251e+01      -3.293e+01       8.706e-01           0.479           0.205           0.854       1.682e-02          0.0713
Strip 3
  65       2.234e+01      -3.248e+01       8.460e-01          -0.040          -0.045          -0.998       2.481e-02          0.1040
  66       2.225e+01      -3.248e+01       8.597e-01          -0.193          -0.102          -0.976       7.455e-02          0.2672
  67       2.209e+01      -3.248e+01       8.766e-01          -0.040          -0.044          -0.998       1.169e-01          0.3590
  68       2.185e+01      -3.248e+01       8.638e-01           0.123           0.022          -0.992       1.553e-01          0.3183
  69       2.155e+01      -3.248e+01       8.121e-01           0.210           0.059          -0.976       1.869e-01          0.1802
  70       2.121e+01      -3.248e+01       7.437e-01           0.186           0.049          -0.981       2.038e-01         -0.0308
  71       2.085e+01      -3.248e+01       6.942e-01           0.086           0.001          -0.996       2.066e-01         -0.1844
  72       2.049e+01      -3.248e+01       6.765e-01           0.011          -0.037          -0.999       1.998e-01         -0.2160
  73       2.015e+01      -3.248e+01       6.820e-01          -0.045          -0.066          -0.997       1.825e-01         -0.2082
  74       1.985e+01      -3.248e+01       7.027e-01          -0.098          -0.095          -0.991       1.551e-01         -0.1936
  75       1.961e+01      -3.248e+01       7.350e-01          -0.178          -0.139          -0.974       1.196e-01         -0.1741
  76       1.944e+01      -3.248e+01       7.803e-01          -0.370          -0.248          -0.895       8.091e-02         -0.0312
  77       1.936e+01      -3.248e+01       8.457e-01          -0.772          -0.471          -0.426       5.667e-02          0.6377
  78       1.936e+01      -3.248e+01       9.233e-01          -0.773          -0.448           0.449       5.662e-02          0.1606
  79       1.944e+01      -3.248e+01       9.888e-01          -0.372          -0.201           0.906       8.089e-02         -0.7912
  80       1.961e+01      -3.247e+01       1.034e+00          -0.177          -0.086           0.981       1.194e-01         -0.6276
  81       1.985e+01      -3.247e+01       1.066e+00          -0.098          -0.041           0.994       1.549e-01         -0.4917
  82       2.015e+01      -3.247e+01       1.087e+00          -0.044          -0.011           0.999       1.823e-01         -0.4244
  83       2.049e+01      -3.247e+01       1.094e+00          -0.002           0.011           1.000       1.995e-01         -0.3774
  84       2.085e+01      -3.247e+01       1.088e+00           0.035           0.029           0.999       2.056e-01         -0.3489
  85       2.121e+01      -3.247e+01       1.068e+00           0.078           0.049           0.996       2.002e-01         -0.3296
  86       2.155e+01      -3.247e+01       1.033e+00           0.131           0.073           0.989       1.838e-01         -0.2928
  87       2.185e+01      -3.248e+01       9.854e-01           0.189           0.097           0.977       1.571e-01         -0.2275
  88       2.209e+01      -3.248e+01       9.334e-01           0.240           0.117           0.964       1.209e-01         -0.1357
  89       2.225e+01      -3.248e+01       8.886e-01           0.280           0.132           0.951       7.643e-02         -0.0672
  90       2.234e+01      -3.248e+01       8.574e-01           0.479           0.205           0.854       2.887e-02          0.1285
Strip 4
  91       2.209e+01      -3.181e+01       8.258e-01          -0.040          -0.045          -0.998       3.620e-02          0.1160
  92       2.200e+01      -3.181e+01       8.401e-01          -0.193          -0.102          -0.976       1.088e-01          0.2832
  93       2.182e+01      -3.180e+01       8.579e-01          -0.040          -0.044          -0.998       1.706e-01          0.3762
  94       2.157e+01      -3.181e+01       8.445e-01           0.123           0.022          -0.992       2.265e-01          0.3318
  95       2.126e+01      -3.181e+01       7.902e-01           0.210           0.059          -0.976       2.727e-01          0.1868
  96       2.090e+01      -3.181e+01       7.184e-01           0.186           0.049          -0.981       2.974e-01         -0.0317
  97       2.052e+01      -3.181e+01       6.665e-01           0.086           0.001          -0.996       3.013e-01         -0.1892
  98       2.015e+01      -3.181e+01       6.479e-01           0.011          -0.037          -0.999       2.915e-01         -0.2170
  99       1.979e+01      -3.181e+01       6.536e-01          -0.045          -0.066          -0.997       2.663e-01         -0.1996
 100       1.948e+01      -3.181e+01       6.754e-01          -0.098          -0.095          -0.991       2.263e-01         -0.1742
 101       1.923e+01      -3.181e+01       7.092e-01          -0.178          -0.139          -0.974       1.745e-01         -0.1455
 102       1.905e+01      -3.181e+01       7.569e-01          -0.370          -0.248          -0.895       1.181e-01          0.0093
 103       1.896e+01      -3.181e+01       8.254e-01          -0.772          -0.471          -0.426       8.271e-02          0.6644
 104       1.896e+01      -3.180e+01       9.069e-01          -0.773          -0.448           0.448       8.258e-02          0.1414
 105       1.905e+01      -3.180e+01       9.756e-01          -0.372          -0.201           0.906       1.180e-01         -0.8317
 106       1.923e+01      -3.180e+01       1.023e+00          -0.177          -0.086           0.981       1.741e-01         -0.6611
 107       1.948e+01      -3.180e+01       1.057e+00          -0.098          -0.041           0.994       2.260e-01         -0.5271
 108       1.979e+01      -3.180e+01       1.079e+00          -0.044          -0.011           0.999       2.659e-01         -0.4672
 109       2.015e+01      -3.180e+01       1.086e+00          -0.002           0.011           1.000       2.911e-01         -0.4262
 110       2.052e+01      -3.180e+01       1.080e+00           0.035           0.029           0.999       3.000e-01         -0.3987
 111       2.090e+01      -3.180e+01       1.059e+00           0.078           0.049           0.996       2.921e-01         -0.3753
 112       2.126e+01      -3.180e+01       1.022e+00           0.131           0.073           0.989       2.682e-01         -0.3296
 113       2.157e+01      -3.180e+01       9.721e-01           0.189           0.097           0.977       2.292e-01         -0.2518
 114       2.182e+01      -3.180e+01       9.174e-01           0.240           0.117           0.964       1.764e-01         -0.1469
 115       2.200e+01      -3.180e+01       8.705e-01           0.280           0.132           0.951       1.115e-01         -0.0666
 116       2.209e+01      -3.181e+01       8.378e-01           0.479           0.205           0.854       4.213e-02          0.1293
Strip 5
 117       2.175e+01      -3.092e+01       7.990e-01          -0.040          -0.045          -0.998       4.899e-02          0.1164
 118       2.166e+01      -3.091e+01       8.142e-01          -0.193          -0.102          -0.976       1.472e-01          0.2860
 119       2.147e+01      -3.091e+01       8.331e-01          -0.040          -0.044          -0.998       2.308e-01          0.3806
 120       2.120e+01      -3.091e+01       8.189e-01           0.123           0.022          -0.992       3.065e-01          0.3363
 121       2.087e+01      -3.092e+01       7.613e-01           0.210           0.059          -0.976       3.689e-01          0.1904
 122       2.049e+01      -3.092e+01       6.850e-01           0.186           0.049          -0.981       4.023e-01         -0.0287
 123       2.009e+01      -3.092e+01       6.298e-01           0.086           0.001          -0.996       4.077e-01         -0.1850
 124       1.969e+01      -3.092e+01       6.101e-01           0.011          -0.037          -0.999       3.944e-01         -0.2099
 125       1.931e+01      -3.092e+01       6.161e-01          -0.045          -0.066          -0.997       3.603e-01         -0.1892
 126       1.898e+01      -3.092e+01       6.393e-01          -0.098          -0.095          -0.991       3.063e-01         -0.1612
 127       1.871e+01      -3.092e+01       6.752e-01          -0.178          -0.139          -0.974       2.361e-01         -0.1293
 128       1.853e+01      -3.092e+01       7.258e-01          -0.369          -0.248          -0.896       1.599e-01          0.0313
 129       1.843e+01      -3.092e+01       7.986e-01          -0.772          -0.471          -0.427       1.120e-01          0.6756
 130       1.843e+01      -3.091e+01       8.852e-01          -0.774          -0.448           0.448       1.117e-01          0.1243
 131       1.853e+01      -3.091e+01       9.582e-01          -0.372          -0.201           0.906       1.596e-01         -0.8600
 132       1.871e+01      -3.091e+01       1.009e+00          -0.177          -0.086           0.981       2.356e-01         -0.6822
 133       1.898e+01      -3.091e+01       1.045e+00          -0.098          -0.041           0.994       3.058e-01         -0.5469
 134       1.931e+01      -3.091e+01       1.068e+00          -0.044          -0.011           0.999       3.598e-01         -0.4887
 135       1.969e+01      -3.091e+01       1.076e+00          -0.002           0.011           1.000       3.940e-01         -0.4507
 136       2.009e+01      -3.091e+01       1.069e+00           0.035           0.029           0.999       4.060e-01         -0.4254
 137       2.049e+01      -3.091e+01       1.047e+00           0.078           0.049           0.996       3.953e-01         -0.4018
 138       2.087e+01      -3.091e+01       1.008e+00           0.131           0.073           0.989       3.629e-01         -0.3529
 139       2.120e+01      -3.091e+01       9.544e-01           0.189           0.097           0.977       3.103e-01         -0.2694
 140       2.147e+01      -3.091e+01       8.964e-01           0.240           0.117           0.964       2.387e-01         -0.1587
 141       2.166e+01      -3.091e+01       8.465e-01           0.280           0.132           0.951       1.509e-01         -0.0738
 142       2.175e+01      -3.091e+01       8.117e-01           0.479           0.205           0.854       5.703e-02          0.1224
Strip 6
 143       2.134e+01      -2.981e+01       7.659e-01          -0.040          -0.045          -0.998       6.347e-02          0.1158
 144       2.124e+01      -2.981e+01       7.822e-01          -0.193          -0.102          -0.976       1.908e-01          0.2868
 145       2.104e+01      -2.981e+01       8.025e-01          -0.040          -0.044          -0.998       2.991e-01          0.3827
 146       2.075e+01      -2.981e+01       7.872e-01           0.123           0.022          -0.992       3.971e-01          0.3389
 147       2.039e+01      -2.981e+01       7.254e-01           0.210           0.059          -0.976       4.779e-01          0.1934
 148       1.999e+01      -2.982e+01       6.436e-01           0.186           0.049          -0.981       5.212e-01         -0.0253
 149       1.956e+01      -2.982e+01       5.844e-01           0.086           0.001          -0.996       5.283e-01         -0.1806
 150       1.913e+01      -2.982e+01       5.633e-01           0.011          -0.037          -0.999       5.110e-01         -0.2043
 151       1.872e+01      -2.982e+01       5.698e-01          -0.045          -0.066          -0.997       4.669e-01         -0.1828
 152       1.837e+01      -2.982e+01       5.946e-01          -0.098          -0.095          -0.991       3.969e-01         -0.1543
 153       1.808e+01      -2.982e+01       6.331e-01          -0.178          -0.139          -0.974       3.060e-01         -0.1213
 154       1.788e+01      -2.981e+01       6.874e-01          -0.369          -0.248          -0.896       2.072e-01          0.0417
 155       1.777e+01      -2.981e+01       7.655e-01          -0.772          -0.471          -0.428       1.451e-01          0.6803
 156       1.777e+01      -2.981e+01       8.583e-01          -0.774          -0.449           0.447       1.447e-01          0.1153
 157       1.788e+01      -2.981e+01       9.366e-01          -0.372          -0.201           0.906       2.067e-01         -0.8751
 158       1.808e+01      -2.981e+01       9.909e-01          -0.177          -0.086           0.981       3.052e-01         -0.6935
 159       1.837e+01      -2.981e+01       1.029e+00          -0.098          -0.041           0.994       3.961e-01         -0.5571
 160       1.872e+01      -2.981e+01       1.054e+00          -0.044          -0.011           0.999       4.662e-01         -0.4994
 161       1.913e+01      -2.981e+01       1.063e+00          -0.002           0.011           1.000       5.105e-01         -0.4624
 162       1.956e+01      -2.981e+01       1.056e+00           0.035           0.029           0.999       5.261e-01         -0.4381
 163       1.999e+01      -2.981e+01       1.032e+00           0.078           0.049           0.996       5.122e-01         -0.4147
 164       2.039e+01      -2.981e+01       9.896e-01           0.131           0.073           0.989       4.703e-01         -0.3646
 165       2.075e+01      -2.981e+01       9.326e-01           0.189           0.097           0.977       4.021e-01         -0.2788
 166       2.104e+01      -2.981e+01       8.703e-01           0.240           0.117           0.964       3.094e-01         -0.1657
 167       2.124e+01      -2.981e+01       8.169e-01           0.280           0.132           0.951       1.956e-01         -0.0787
 168       2.134e+01      -2.981e+01       7.795e-01           0.478           0.204           0.854       7.391e-02          0.1177
Strip 7
 169       2.085e+01      -2.851e+01       7.267e-01          -0.040          -0.045          -0.998       7.990e-02          0.1155
 170       2.074e+01      -2.851e+01       7.443e-01          -0.193          -0.102          -0.976       2.402e-01          0.2873
 171       2.052e+01      -2.851e+01       7.662e-01          -0.040          -0.044          -0.998       3.765e-01          0.3839
 172       2.021e+01      -2.851e+01       7.497e-01           0.123           0.022          -0.992       4.998e-01          0.3406
 173       1.983e+01      -2.851e+01       6.829e-01           0.210           0.059          -0.976       6.014e-01          0.1953
 174       1.939e+01      -2.851e+01       5.946e-01           0.187           0.049          -0.981       6.559e-01         -0.0232
 175       1.893e+01      -2.851e+01       5.307e-01           0.086           0.001          -0.996       6.649e-01         -0.1783
 176       1.846e+01      -2.851e+01       5.078e-01           0.011          -0.037          -0.999       6.432e-01         -0.2017
 177       1.802e+01      -2.851e+01       5.148e-01          -0.045          -0.066          -0.997       5.878e-01         -0.1801
 178       1.764e+01      -2.851e+01       5.416e-01          -0.098          -0.095          -0.991       4.996e-01         -0.1518
 179       1.733e+01      -2.851e+01       5.833e-01          -0.178          -0.139          -0.974       3.853e-01         -0.1190
 180       1.711e+01      -2.851e+01       6.419e-01          -0.369          -0.248          -0.896       2.610e-01          0.0441
 181       1.700e+01      -2.851e+01       7.262e-01          -0.771          -0.471          -0.429       1.828e-01          0.6814
 182       1.700e+01      -2.851e+01       8.265e-01          -0.774          -0.449           0.446       1.820e-01          0.1145
 183       1.711e+01      -2.850e+01       9.111e-01          -0.372          -0.201           0.906       2.601e-01         -0.8789
 184       1.733e+01      -2.850e+01       9.696e-01          -0.177          -0.086           0.981       3.841e-01         -0.6971
 185       1.764e+01      -2.850e+01       1.011e+00          -0.098          -0.041           0.994       4.986e-01         -0.5609
 186       1.802e+01      -2.850e+01       1.038e+00          -0.044          -0.011           0.999       5.868e-01         -0.5038
 187       1.846e+01      -2.850e+01       1.047e+00          -0.002           0.011           1.000       6.425e-01         -0.4674
 188       1.893e+01      -2.850e+01       1.040e+00           0.035           0.029           0.999       6.622e-01         -0.4436
 189       1.939e+01      -2.850e+01       1.014e+00           0.078           0.049           0.996       6.448e-01         -0.4203
 190       1.983e+01      -2.850e+01       9.682e-01           0.131           0.073           0.989       5.921e-01         -0.3697
 191       2.021e+01      -2.850e+01       9.067e-01           0.189           0.097           0.977       5.062e-01         -0.2831
 192       2.052e+01      -2.851e+01       8.395e-01           0.240           0.117           0.964       3.895e-01         -0.1691
 193       2.074e+01      -2.851e+01       7.817e-01           0.279           0.132           0.951       2.463e-01         -0.0811
 194       2.085e+01      -2.851e+01       7.414e-01           0.478           0.204           0.854       9.307e-02          0.1151
Strip 8
 195       2.029e+01      -2.701e+01       6.816e-01          -0.040          -0.045          -0.998       9.843e-02          0.1153
 196       2.017e+01      -2.701e+01       7.007e-01          -0.193          -0.102          -0.976       2.959e-01          0.2876
 197       1.993e+01      -2.701e+01       7.245e-01          -0.040          -0.044          -0.998       4.638e-01          0.3847
 198       1.959e+01      -2.701e+01       7.065e-01           0.123           0.022          -0.992       6.155e-01          0.3416
 199       1.918e+01      -2.701e+01       6.341e-01           0.210           0.059          -0.976       7.407e-01          0.1963
 200       1.870e+01      -2.701e+01       5.382e-01           0.187           0.049          -0.981       8.078e-01         -0.0225
 201       1.820e+01      -2.701e+01       4.689e-01           0.086           0.001          -0.996       8.189e-01         -0.1777
 202       1.769e+01      -2.701e+01       4.441e-01           0.011          -0.037          -0.999       7.923e-01         -0.2013
 203       1.722e+01      -2.701e+01       4.517e-01          -0.045          -0.066          -0.997       7.240e-01         -0.1801
 204       1.680e+01      -2.701e+01       4.808e-01          -0.098          -0.095          -0.991       6.155e-01         -0.1526
 205       1.647e+01      -2.701e+01       5.260e-01          -0.178          -0.139          -0.974       4.747e-01         -0.1207
 206       1.623e+01      -2.701e+01       5.895e-01          -0.369          -0.248          -0.896       3.216e-01          0.0408
 207       1.611e+01      -2.701e+01       6.811e-01          -0.771          -0.471          -0.429       2.253e-01          0.6802
 208       1.611e+01      -2.701e+01       7.899e-01          -0.775          -0.449           0.445       2.241e-01          0.1203
 209       1.623e+01      -2.700e+01       8.817e-01          -0.372          -0.201           0.906       3.202e-01         -0.8740
 210       1.647e+01      -2.700e+01       9.453e-01          -0.177          -0.086           0.981       4.730e-01         -0.6950
 211       1.680e+01      -2.700e+01       9.903e-01          -0.098          -0.041           0.994       6.141e-01         -0.5605
 212       1.722e+01      -2.700e+01       1.019e+00          -0.044          -0.011           0.999       7.228e-01         -0.5041
 213       1.769e+01      -2.700e+01       1.030e+00          -0.002           0.011           1.000       7.915e-01         -0.4686
 214       1.820e+01      -2.700e+01       1.021e+00           0.035           0.029           0.999       8.158e-01         -0.4453
 215       1.870e+01      -2.700e+01       9.930e-01           0.078           0.049           0.996       7.944e-01         -0.4222
 216       1.918e+01      -2.700e+01       9.437e-01           0.131           0.073           0.989       7.294e-01         -0.3716
 217       1.959e+01      -2.700e+01       8.770e-01           0.189           0.097           0.977       6.236e-01         -0.2847
 218       1.993e+01      -2.701e+01       8.040e-01           0.240           0.117           0.964       4.799e-01         -0.1704
 219       2.017e+01      -2.701e+01       7.413e-01           0.279           0.132           0.951       3.035e-01         -0.0822
 220       2.029e+01      -2.701e+01       6.976e-01           0.478           0.204           0.854       1.147e-01          0.1138
Strip 9
 221       1.966e+01      -2.532e+01       6.310e-01          -0.040          -0.045          -0.998       1.191e-01          0.1153
 222       1.952e+01      -2.532e+01       6.518e-01          -0.193          -0.102          -0.976       3.582e-01          0.2878
 223       1.927e+01      -2.532e+01       6.776e-01          -0.040          -0.044          -0.998       5.614e-01          0.3850
 224       1.890e+01      -2.532e+01       6.581e-01           0.123           0.022          -0.992       7.449e-01          0.3420
 225       1.845e+01      -2.532e+01       5.793e-01           0.210           0.059          -0.976       8.963e-01          0.1965
 226       1.793e+01      -2.533e+01       4.750e-01           0.187           0.049          -0.981       9.775e-01         -0.0227
 227       1.738e+01      -2.533e+01       3.995e-01           0.086           0.001          -0.996       9.910e-01         -0.1785
 228       1.683e+01      -2.533e+01       3.725e-01           0.011          -0.037          -0.999       9.589e-01         -0.2026
 229       1.632e+01      -2.533e+01       3.808e-01          -0.045          -0.066          -0.997       8.763e-01         -0.1820
 230       1.586e+01      -2.533e+01       4.124e-01          -0.098          -0.095          -0.991       7.450e-01         -0.1555
 231       1.550e+01      -2.533e+01       4.616e-01          -0.178          -0.139          -0.974       5.746e-01         -0.1253
 232       1.524e+01      -2.532e+01       5.308e-01          -0.369          -0.248          -0.896       3.893e-01          0.0332
 233       1.511e+01      -2.532e+01       6.304e-01          -0.770          -0.470          -0.430       2.727e-01          0.6773
 234       1.511e+01      -2.532e+01       7.488e-01          -0.775          -0.449           0.445       2.711e-01          0.1309
 235       1.524e+01      -2.532e+01       8.487e-01          -0.373          -0.201           0.906       3.874e-01         -0.8626
 236       1.550e+01      -2.532e+01       9.179e-01          -0.177          -0.086           0.981       5.723e-01         -0.6890
 237       1.586e+01      -2.532e+01       9.668e-01          -0.098          -0.041           0.994       7.431e-01         -0.5569
 238       1.632e+01      -2.532e+01       9.982e-01          -0.044          -0.011           0.999       8.747e-01         -0.5021
 239       1.683e+01      -2.532e+01       1.010e+00          -0.002           0.011           1.000       9.579e-01         -0.4674
 240       1.738e+01      -2.532e+01       1.001e+00           0.035           0.029           0.999       9.873e-01         -0.4447
 241       1.793e+01      -2.532e+01       9.698e-01           0.078           0.049           0.996       9.615e-01         -0.4220
 242       1.845e+01      -2.532e+01       9.162e-01           0.131           0.073           0.989       8.828e-01         -0.3716
 243       1.890e+01      -2.532e+01       8.435e-01           0.189           0.097           0.977       7.549e-01         -0.2849
 244       1.927e+01      -2.532e+01       7.641e-01           0.240           0.117           0.964       5.809e-01         -0.1707
 245       1.952e+01      -2.532e+01       6.959e-01           0.279           0.132           0.951       3.673e-01         -0.0825
 246       1.966e+01      -2.532e+01       6.483e-01           0.478           0.204           0.854       1.388e-01          0.1132
Strip 10
 247       1.896e+01      -2.347e+01       5.752e-01          -0.040          -0.045          -0.998       1.420e-01          0.1151
 248       1.882e+01      -2.347e+01       5.978e-01          -0.193          -0.102          -0.976       4.269e-01          0.2878
 249       1.854e+01      -2.346e+01       6.259e-01          -0.040          -0.044          -0.998       6.690e-01          0.3852
 250       1.814e+01      -2.347e+01       6.047e-01           0.123           0.022          -0.992       8.876e-01          0.3421
 251       1.764e+01      -2.347e+01       5.188e-01           0.210           0.059          -0.976       1.068e+00          0.1963
 252       1.708e+01      -2.347e+01       4.052e-01           0.187           0.049          -0.981       1.165e+00         -0.0236
 253       1.648e+01      -2.347e+01       3.230e-01           0.086           0.001          -0.996       1.181e+00         -0.1802
 254       1.589e+01      -2.347e+01       2.936e-01           0.011          -0.037          -0.999       1.143e+00         -0.2050
 255       1.532e+01      -2.347e+01       3.026e-01          -0.045          -0.066          -0.997       1.044e+00         -0.1852
 256       1.483e+01      -2.347e+01       3.371e-01          -0.098          -0.095          -0.991       8.880e-01         -0.1600
 257       1.443e+01      -2.347e+01       3.907e-01          -0.178          -0.139          -0.974       6.849e-01         -0.1322
 258       1.415e+01      -2.347e+01       4.660e-01          -0.369          -0.248          -0.896       4.642e-01          0.0224
 259       1.401e+01      -2.347e+01       5.746e-01          -0.770          -0.470          -0.431       3.252e-01          0.6731
 260       1.401e+01      -2.346e+01       7.035e-01          -0.775          -0.449           0.444       3.230e-01          0.1453
 261       1.415e+01      -2.346e+01       8.123e-01          -0.373          -0.201           0.906       4.615e-01         -0.8464
 262       1.443e+01      -2.346e+01       8.877e-01          -0.177          -0.086           0.981       6.819e-01         -0.6801
 263       1.483e+01      -2.346e+01       9.410e-01          -0.098          -0.041           0.994       8.855e-01         -0.5513
 264       1.532e+01      -2.346e+01       9.752e-01          -0.044          -0.011           0.999       1.042e+00         -0.4982
 265       1.589e+01      -2.346e+01       9.877e-01          -0.002           0.011           1.000       1.142e+00         -0.4647
 266       1.648e+01      -2.346e+01       9.778e-01           0.035           0.029           0.999       1.177e+00         -0.4428
 267       1.708e+01      -2.346e+01       9.443e-01           0.078           0.049           0.996       1.146e+00         -0.4206
 268       1.764e+01      -2.346e+01       8.859e-01           0.131           0.073           0.989       1.052e+00         -0.3707
 269       1.814e+01      -2.346e+01       8.067e-01           0.189           0.097           0.977       8.998e-01         -0.2844
 270       1.854e+01      -2.346e+01       7.202e-01           0.240           0.117           0.964       6.924e-01         -0.1705
 271       1.882e+01      -2.346e+01       6.459e-01           0.279           0.132           0.951       4.379e-01         -0.0826
 272       1.896e+01      -2.347e+01       5.941e-01           0.478           0.204           0.854       1.655e-01          0.1128
Strip 11
 273       1.820e+01      -2.145e+01       5.145e-01          -0.040          -0.045          -0.998       1.669e-01          0.1148
 274       1.805e+01      -2.145e+01       5.392e-01          -0.193          -0.102          -0.976       5.018e-01          0.2876
 275       1.774e+01      -2.145e+01       5.698e-01          -0.040          -0.044          -0.998       7.863e-01          0.3852
 276       1.731e+01      -2.145e+01       5.467e-01           0.123           0.022          -0.992       1.043e+00          0.3420
 277       1.677e+01      -2.145e+01       4.532e-01           0.210           0.059          -0.976       1.255e+00          0.1958
 278       1.616e+01      -2.145e+01       3.294e-01           0.187           0.049          -0.981       1.369e+00         -0.0250
 279       1.551e+01      -2.145e+01       2.399e-01           0.086           0.001          -0.996       1.388e+00         -0.1826
 280       1.485e+01      -2.145e+01       2.078e-01           0.011          -0.037          -0.999       1.343e+00         -0.2082
 281       1.424e+01      -2.145e+01       2.177e-01          -0.045          -0.066          -0.997       1.228e+00         -0.1895
 282       1.370e+01      -2.145e+01       2.552e-01          -0.098          -0.095          -0.991       1.044e+00         -0.1658
 283       1.327e+01      -2.145e+01       3.136e-01          -0.177          -0.139          -0.974       8.051e-01         -0.1407
 284       1.296e+01      -2.145e+01       3.956e-01          -0.368          -0.248          -0.896       5.457e-01          0.0089
 285       1.281e+01      -2.145e+01       5.139e-01          -0.770          -0.470          -0.432       3.823e-01          0.6678
 286       1.281e+01      -2.145e+01       6.543e-01          -0.776          -0.450           0.443       3.795e-01          0.1624
 287       1.296e+01      -2.145e+01       7.728e-01          -0.373          -0.201           0.906       5.422e-01         -0.8261
 288       1.327e+01      -2.144e+01       8.549e-01          -0.177          -0.086           0.981       8.013e-01         -0.6687
 289       1.370e+01      -2.144e+01       9.130e-01          -0.098          -0.041           0.994       1.041e+00         -0.5441
 290       1.424e+01      -2.144e+01       9.502e-01          -0.044          -0.011           0.999       1.225e+00         -0.4930
 291       1.485e+01      -2.144e+01       9.639e-01          -0.002           0.011           1.000       1.342e+00         -0.4608
 292       1.551e+01      -2.144e+01       9.530e-01           0.035           0.029           0.999       1.383e+00         -0.4399
 293       1.616e+01      -2.144e+01       9.165e-01           0.078           0.049           0.996       1.347e+00         -0.4185
 294       1.677e+01      -2.144e+01       8.529e-01           0.131           0.073           0.989       1.237e+00         -0.3692
 295       1.731e+01      -2.145e+01       7.667e-01           0.189           0.097           0.977       1.058e+00         -0.2834
 296       1.774e+01      -2.145e+01       6.725e-01           0.240           0.117           0.964       8.139e-01         -0.1700
 297       1.805e+01      -2.145e+01       5.916e-01           0.279           0.132           0.951       5.147e-01         -0.0825
 298       1.820e+01      -2.145e+01       5.351e-01           0.478           0.204           0.854       1.946e-01          0.1123
Strip 12
 299       1.739e+01      -1.928e+01       4.495e-01          -0.040          -0.045          -0.998       1.936e-01          0.1146
 300       1.722e+01      -1.928e+01       4.763e-01          -0.193          -0.102          -0.976       5.822e-01          0.2875
 301       1.689e+01      -1.928e+01       5.096e-01          -0.040          -0.044          -0.998       9.122e-01          0.3850
 302       1.642e+01      -1.928e+01       4.845e-01           0.123           0.022          -0.992       1.210e+00          0.3417
 303       1.583e+01      -1.928e+01       3.828e-01           0.210           0.059          -0.976       1.456e+00          0.1950
 304       1.516e+01      -1.928e+01       2.481e-01           0.187           0.049          -0.981       1.588e+00         -0.0268
 305       1.446e+01      -1.929e+01       1.507e-01           0.086           0.001          -0.996       1.610e+00         -0.1855
 306       1.375e+01      -1.929e+01       1.159e-01           0.011          -0.037          -0.999       1.558e+00         -0.2122
 307       1.308e+01      -1.929e+01       1.266e-01          -0.045          -0.066          -0.997       1.424e+00         -0.1945
 308       1.250e+01      -1.929e+01       1.674e-01          -0.097          -0.095          -0.991       1.211e+00         -0.1726
 309       1.202e+01      -1.928e+01       2.309e-01          -0.177          -0.139          -0.974       9.341e-01         -0.1508
 310       1.169e+01      -1.928e+01       3.202e-01          -0.368          -0.248          -0.896       6.333e-01         -0.0069
 311       1.152e+01      -1.928e+01       4.487e-01          -0.770          -0.470          -0.432       4.436e-01          0.6613
 312       1.152e+01      -1.928e+01       6.015e-01          -0.776          -0.450           0.443       4.401e-01          0.1819
 313       1.169e+01      -1.928e+01       7.304e-01          -0.373          -0.201           0.906       6.288e-01         -0.8026
 314       1.202e+01      -1.928e+01       8.197e-01          -0.177          -0.086           0.980       9.294e-01         -0.6554
 315       1.250e+01      -1.928e+01       8.829e-01          -0.098          -0.041           0.994       1.207e+00         -0.5354
 316       1.308e+01      -1.928e+01       9.234e-01          -0.044          -0.011           0.999       1.421e+00         -0.4868
 317       1.375e+01      -1.928e+01       9.382e-01          -0.002           0.011           1.000       1.556e+00         -0.4562
 318       1.446e+01      -1.928e+01       9.264e-01           0.035           0.029           0.999       1.604e+00         -0.4364
 319       1.516e+01      -1.928e+01       8.867e-01           0.078           0.049           0.996       1.563e+00         -0.4159
 320       1.583e+01      -1.928e+01       8.176e-01           0.131           0.073           0.989       1.435e+00         -0.3672
 321       1.642e+01      -1.928e+01       7.238e-01           0.189           0.097           0.977       1.227e+00         -0.2821
 322       1.689e+01      -1.928e+01       6.213e-01           0.240           0.117           0.964       9.443e-01         -0.1693
 323       1.722e+01      -1.928e+01       5.333e-01           0.279           0.132           0.951       5.972e-01         -0.0822
 324       1.739e+01      -1.928e+01       4.719e-01           0.478           0.204           0.855       2.258e-01          0.1122
Strip 13
 325       1.653e+01      -1.699e+01       3.804e-01          -0.040          -0.045          -0.998       2.218e-01          0.1142
 326       1.634e+01      -1.699e+01       4.096e-01          -0.193          -0.102          -0.976       6.672e-01          0.2872
 327       1.598e+01      -1.699e+01       4.458e-01          -0.040          -0.044          -0.998       1.045e+00          0.3848
 328       1.547e+01      -1.699e+01       4.185e-01           0.123           0.022          -0.992       1.386e+00          0.3413
 329       1.483e+01      -1.699e+01       3.080e-01           0.210           0.059          -0.976       1.668e+00          0.1941
 330       1.411e+01      -1.699e+01       1.619e-01           0.187           0.049          -0.981       1.819e+00         -0.0289
 331       1.334e+01      -1.699e+01       5.613e-02           0.086           0.001          -0.996       1.845e+00         -0.1890
 332       1.258e+01      -1.699e+01       1.834e-02           0.011          -0.037          -0.999       1.785e+00         -0.2167
 333       1.185e+01      -1.699e+01       2.995e-02          -0.045          -0.066          -0.997       1.632e+00         -0.2004
 334       1.122e+01      -1.699e+01       7.425e-02          -0.097          -0.095          -0.991       1.388e+00         -0.1803
 335       1.070e+01      -1.699e+01       1.432e-01          -0.177          -0.139          -0.974       1.071e+00         -0.1622
 336       1.034e+01      -1.699e+01       2.401e-01          -0.368          -0.248          -0.896       7.258e-01         -0.0250
 337       1.016e+01      -1.699e+01       3.797e-01          -0.769          -0.470          -0.433       5.084e-01          0.6536
 338       1.016e+01      -1.699e+01       5.455e-01          -0.776          -0.450           0.442       5.041e-01          0.2034
 339       1.034e+01      -1.699e+01       6.855e-01          -0.373          -0.201           0.906       7.202e-01         -0.7759
 340       1.070e+01      -1.698e+01       7.824e-01          -0.177          -0.086           0.980       1.065e+00         -0.6402
 341       1.122e+01      -1.698e+01       8.510e-01          -0.098          -0.041           0.994       1.383e+00         -0.5255
 342       1.185e+01      -1.698e+01       8.949e-01          -0.044          -0.011           0.999       1.628e+00         -0.4796
 343       1.258e+01      -1.698e+01       9.111e-01          -0.002           0.011           1.000       1.783e+00         -0.4508
 344       1.334e+01      -1.698e+01       8.982e-01           0.035           0.029           0.999       1.838e+00         -0.4323
 345       1.411e+01      -1.698e+01       8.551e-01           0.078           0.049           0.996       1.790e+00         -0.4127
 346       1.483e+01      -1.698e+01       7.801e-01           0.131           0.073           0.989       1.644e+00         -0.3649
 347       1.547e+01      -1.699e+01       6.782e-01           0.189           0.097           0.977       1.406e+00         -0.2806
 348       1.598e+01      -1.699e+01       5.670e-01           0.240           0.117           0.964       1.082e+00         -0.1685
 349       1.634e+01      -1.699e+01       4.715e-01           0.279           0.132           0.951       6.844e-01         -0.0820
 350       1.653e+01      -1.699e+01       4.048e-01           0.477           0.204           0.855       2.588e-01          0.1118
Strip 14
 351       1.562e+01      -1.457e+01       3.080e-01          -0.040          -0.045          -0.998       2.512e-01          0.1137
 352       1.542e+01      -1.457e+01       3.395e-01          -0.193          -0.102          -0.976       7.555e-01          0.2868
 353       1.503e+01      -1.457e+01       3.787e-01          -0.040          -0.044          -0.998       1.184e+00          0.3845
 354       1.448e+01      -1.457e+01       3.491e-01           0.123           0.022          -0.992       1.570e+00          0.3408
 355       1.379e+01      -1.458e+01       2.295e-01           0.210           0.059          -0.976       1.888e+00          0.1929
 356       1.301e+01      -1.458e+01       7.127e-02           0.187           0.049          -0.981       2.059e+00         -0.0314
 357       1.218e+01      -1.458e+01      -4.322e-02           0.086           0.001          -0.996       2.089e+00         -0.1930
 358       1.134e+01      -1.458e+01      -8.414e-02           0.011          -0.037          -0.999       2.021e+00         -0.2220
 359       1.056e+01      -1.458e+01      -7.157e-02          -0.045          -0.066          -0.997       1.848e+00         -0.2070
 360       9.872e+00      -1.458e+01      -2.360e-02          -0.097          -0.095          -0.991       1.571e+00         -0.1891
 361       9.317e+00      -1.458e+01       5.103e-02          -0.177          -0.139          -0.974       1.212e+00         -0.1751
 362       8.928e+00      -1.458e+01       1.560e-01          -0.368          -0.247          -0.896       8.221e-01         -0.0456
 363       8.728e+00      -1.457e+01       3.071e-01          -0.769          -0.470          -0.433       5.759e-01          0.6444
 364       8.728e+00      -1.457e+01       4.867e-01          -0.776          -0.450           0.442       5.707e-01          0.2268
 365       8.928e+00      -1.457e+01       6.382e-01          -0.373          -0.201           0.906       8.154e-01         -0.7460
 366       9.317e+00      -1.457e+01       7.432e-01          -0.177          -0.086           0.980       1.206e+00         -0.6230
 367       9.872e+00      -1.457e+01       8.174e-01          -0.098          -0.041           0.994       1.566e+00         -0.5142
 368       1.056e+01      -1.457e+01       8.651e-01          -0.044          -0.011           0.999       1.844e+00         -0.4715
 369       1.134e+01      -1.457e+01       8.825e-01          -0.002           0.011           1.000       2.019e+00         -0.4447
 370       1.218e+01      -1.457e+01       8.686e-01           0.035           0.029           0.999       2.082e+00         -0.4276
 371       1.301e+01      -1.457e+01       8.220e-01           0.078           0.049           0.996       2.028e+00         -0.4091
 372       1.379e+01      -1.457e+01       7.407e-01           0.131           0.073           0.989       1.862e+00         -0.3623
 373       1.448e+01      -1.457e+01       6.304e-01           0.189           0.097           0.977       1.592e+00         -0.2789
 374       1.503e+01      -1.457e+01       5.100e-01           0.240           0.117           0.964       1.225e+00         -0.1676
 375       1.542e+01      -1.457e+01       4.065e-01           0.279           0.132           0.951       7.751e-01         -0.0818
 376       1.562e+01      -1.457e+01       3.343e-01           0.477           0.204           0.855       2.931e-01          0.1113
Strip 15
 377       1.468e+01      -1.206e+01       2.325e-01          -0.040          -0.045          -0.998       2.812e-01          0.1129
 378       1.446e+01      -1.206e+01       2.665e-01          -0.193          -0.102          -0.976       8.459e-01          0.2863
 379       1.404e+01      -1.206e+01       3.088e-01          -0.040          -0.044          -0.998       1.325e+00          0.3840
 380       1.345e+01      -1.206e+01       2.769e-01           0.123           0.022          -0.992       1.757e+00          0.3402
 381       1.270e+01      -1.206e+01       1.478e-01           0.210           0.059          -0.976       2.114e+00          0.1915
 382       1.186e+01      -1.206e+01      -2.306e-02           0.187           0.049          -0.981       2.305e+00         -0.0343
 383       1.096e+01      -1.206e+01      -1.467e-01           0.086           0.001          -0.996       2.338e+00         -0.1976
 384       1.006e+01      -1.206e+01      -1.909e-01           0.011          -0.037          -0.999       2.263e+00         -0.2280
 385       9.216e+00      -1.206e+01      -1.773e-01          -0.045          -0.066          -0.997       2.069e+00         -0.2146
 386       8.472e+00      -1.206e+01      -1.255e-01          -0.097          -0.095          -0.991       1.759e+00         -0.1990
 387       7.873e+00      -1.206e+01      -4.492e-02          -0.177          -0.139          -0.974       1.357e+00         -0.1896
 388       7.453e+00      -1.206e+01       6.838e-02          -0.368          -0.247          -0.896       9.205e-01         -0.0689
 389       7.236e+00      -1.206e+01       2.316e-01          -0.769          -0.470          -0.434       6.449e-01          0.6334
 390       7.236e+00      -1.206e+01       4.255e-01          -0.776          -0.450           0.441       6.388e-01          0.2525
 391       7.453e+00      -1.206e+01       5.890e-01          -0.373          -0.202           0.906       9.126e-01         -0.7123
 392       7.873e+00      -1.206e+01       7.023e-01          -0.177          -0.086           0.980       1.349e+00         -0.6034
 393       8.472e+00      -1.206e+01       7.825e-01          -0.098          -0.041           0.994       1.753e+00         -0.5015
 394       9.216e+00      -1.206e+01       8.339e-01          -0.044          -0.011           0.999       2.064e+00         -0.4623
 395       1.006e+01      -1.206e+01       8.528e-01          -0.002           0.011           1.000       2.261e+00         -0.4378
 396       1.096e+01      -1.206e+01       8.378e-01           0.035           0.029           0.999       2.330e+00         -0.4224
 397       1.186e+01      -1.206e+01       7.874e-01           0.078           0.049           0.996       2.270e+00         -0.4053
 398       1.270e+01      -1.206e+01       6.996e-01           0.131           0.073           0.989       2.085e+00         -0.3596
 399       1.345e+01      -1.206e+01       5.806e-01           0.188           0.097           0.977       1.783e+00         -0.2772
 400       1.404e+01      -1.206e+01       4.506e-01           0.240           0.117           0.964       1.372e+00         -0.1668
 401       1.446e+01      -1.206e+01       3.389e-01           0.279           0.132           0.951       8.678e-01         -0.0818
 402       1.468e+01      -1.206e+01       2.609e-01           0.477           0.204           0.855       3.281e-01          0.1105
Strip 16
 403       1.371e+01      -9.469e+00       1.545e-01          -0.040          -0.045          -0.998       3.113e-01          0.1120
 404       1.347e+01      -9.469e+00       1.912e-01          -0.193          -0.102          -0.976       9.366e-01          0.2856
 405       1.302e+01      -9.469e+00       2.367e-01          -0.040          -0.044          -0.998       1.467e+00          0.3834
 406       1.238e+01      -9.469e+00       2.023e-01           0.123           0.022          -0.992       1.945e+00          0.3394
 407       1.158e+01      -9.469e+00       6.340e-02           0.210           0.059          -0.976       2.340e+00          0.1897
 408       1.067e+01      -9.470e+00      -1.205e-01           0.187           0.049          -0.981       2.552e+00         -0.0380
 409       9.702e+00      -9.470e+00      -2.535e-01           0.086           0.001          -0.996       2.588e+00         -0.2032
 410       8.736e+00      -9.470e+00      -3.011e-01           0.011          -0.037          -0.999       2.505e+00         -0.2350
 411       7.827e+00      -9.470e+00      -2.865e-01          -0.045          -0.066          -0.997       2.290e+00         -0.2232
 412       7.026e+00      -9.470e+00      -2.307e-01          -0.097          -0.095          -0.991       1.948e+00         -0.2101
 413       6.381e+00      -9.470e+00      -1.440e-01          -0.177          -0.139          -0.974       1.503e+00         -0.2058
 414       5.929e+00      -9.469e+00      -2.209e-02          -0.368          -0.247          -0.896       1.019e+00         -0.0952
 415       5.696e+00      -9.469e+00       1.535e-01          -0.769          -0.470          -0.434       7.141e-01          0.6202
 416       5.696e+00      -9.468e+00       3.622e-01          -0.777          -0.450           0.441       7.071e-01          0.2808
 417       5.929e+00      -9.468e+00       5.382e-01          -0.373          -0.202           0.906       1.010e+00         -0.6735
 418       6.381e+00      -9.468e+00       6.602e-01          -0.177          -0.086           0.980       1.494e+00         -0.5806
 419       7.026e+00      -9.467e+00       7.465e-01          -0.098          -0.041           0.994       1.941e+00         -0.4865
 420       7.827e+00      -9.467e+00       8.018e-01          -0.044          -0.011           0.999       2.285e+00         -0.4516
 421       8.736e+00      -9.467e+00       8.221e-01          -0.002           0.011           1.000       2.503e+00         -0.4301
 422       9.702e+00      -9.467e+00       8.059e-01           0.035           0.029           0.999       2.580e+00         -0.4167
 423       1.067e+01      -9.467e+00       7.517e-01           0.078           0.049           0.996       2.513e+00         -0.4013
 424       1.158e+01      -9.468e+00       6.573e-01           0.131           0.073           0.989       2.308e+00         -0.3569
 425       1.238e+01      -9.468e+00       5.292e-01           0.188           0.097           0.977       1.974e+00         -0.2756
 426       1.302e+01      -9.468e+00       3.892e-01           0.240           0.117           0.964       1.519e+00         -0.1663
 427       1.347e+01      -9.469e+00       2.690e-01           0.279           0.132           0.951       9.609e-01         -0.0821
 428       1.371e+01      -9.469e+00       1.851e-01           0.477           0.204           0.855       3.634e-01          0.1094
Strip 17
 429       1.271e+01      -6.810e+00       7.459e-02          -0.040          -0.045          -0.998       3.410e-01          0.1102
 430       1.246e+01      -6.810e+00       1.139e-01          -0.193          -0.102          -0.976       1.026e+00          0.2844
 431       1.198e+01      -6.810e+00       1.627e-01          -0.040          -0.044          -0.998       1.607e+00          0.3824
 432       1.128e+01      -6.810e+00       1.259e-01           0.123           0.022          -0.992       2.131e+00          0.3379
 433       1.043e+01      -6.810e+00      -2.312e-02           0.210           0.059          -0.976       2.562e+00          0.1869
 434       9.450e+00      -6.811e+00      -2.204e-01           0.187           0.049          -0.981       2.795e+00         -0.0431
 435       8.414e+00      -6.811e+00      -3.630e-01           0.086           0.001          -0.996       2.835e+00         -0.2105
 436       7.378e+00      -6.811e+00      -4.140e-01           0.011          -0.037          -0.999       2.744e+00         -0.2436
 437       6.403e+00      -6.811e+00      -3.984e-01          -0.045          -0.066          -0.997       2.509e+00         -0.2328
 438       5.544e+00      -6.811e+00      -3.386e-01          -0.097          -0.095          -0.991       2.133e+00         -0.2218
 439       4.852e+00      -6.811e+00      -2.456e-01          -0.177          -0.139          -0.974       1.646e+00         -0.2229
 440       4.367e+00      -6.810e+00      -1.148e-01          -0.368          -0.247          -0.896       1.117e+00         -0.1240
 441       4.118e+00      -6.810e+00       7.355e-02          -0.769          -0.469          -0.434       7.823e-01          0.6045
 442       4.118e+00      -6.810e+00       2.974e-01          -0.777          -0.450           0.440       7.743e-01          0.3128
 443       4.367e+00      -6.809e+00       4.862e-01          -0.373          -0.202           0.905       1.106e+00         -0.6270
 444       4.852e+00      -6.809e+00       6.169e-01          -0.177          -0.086           0.980       1.636e+00         -0.5522
 445       5.544e+00      -6.809e+00       7.095e-01          -0.098          -0.041           0.994       2.125e+00         -0.4677
 446       6.403e+00      -6.809e+00       7.688e-01          -0.044          -0.011           0.999       2.503e+00         -0.4385
 447       7.378e+00      -6.809e+00       7.906e-01          -0.002           0.011           1.000       2.741e+00         -0.4211
 448       8.414e+00      -6.809e+00       7.733e-01           0.035           0.029           0.999       2.826e+00         -0.4109
 449       9.450e+00      -6.809e+00       7.151e-01           0.078           0.049           0.996       2.753e+00         -0.3977
 450       1.043e+01      -6.809e+00       6.138e-01           0.131           0.073           0.989       2.528e+00         -0.3551
 451       1.128e+01      -6.809e+00       4.764e-01           0.188           0.097           0.977       2.162e+00         -0.2751
 452       1.198e+01      -6.810e+00       3.263e-01           0.240           0.117           0.964       1.664e+00         -0.1667
 453       1.246e+01      -6.810e+00       1.974e-01           0.279           0.132           0.951       1.052e+00         -0.0834
 454       1.271e+01      -6.810e+00       1.074e-01           0.477           0.204           0.855       3.980e-01          0.1070
Strip 18
 455       1.170e+01      -4.105e+00      -6.715e-03          -0.040          -0.045          -0.998       3.695e-01          0.1072
 456       1.143e+01      -4.105e+00       3.532e-02          -0.193          -0.102          -0.976       1.112e+00          0.2822
 457       1.091e+01      -4.105e+00       8.749e-02          -0.040          -0.044          -0.998       1.741e+00          0.3804
 458       1.017e+01      -4.105e+00       4.810e-02           0.123           0.022          -0.992       2.309e+00          0.3348
 459       9.253e+00      -4.105e+00      -1.111e-01           0.210           0.059          -0.976       2.777e+00          0.1810
 460       8.210e+00      -4.105e+00      -3.220e-01           0.187           0.049          -0.981       3.028e+00         -0.0528
 461       7.103e+00      -4.105e+00      -4.745e-01           0.086           0.001          -0.996       3.072e+00         -0.2220
 462       5.996e+00      -4.105e+00      -5.290e-01           0.011          -0.037          -0.999       2.974e+00         -0.2540
 463       4.954e+00      -4.105e+00      -5.122e-01          -0.045          -0.066          -0.997       2.718e+00         -0.2416
 464       4.036e+00      -4.105e+00      -4.483e-01          -0.097          -0.095          -0.991       2.312e+00         -0.2302
 465       3.296e+00      -4.105e+00      -3.489e-01          -0.177          -0.139          -0.974       1.784e+00         -0.2349
 466       2.778e+00      -4.105e+00      -2.091e-01          -0.368          -0.247          -0.896       1.210e+00         -0.1489
 467       2.511e+00      -4.105e+00      -7.826e-03          -0.769          -0.469          -0.435       8.478e-01          0.5895
 468       2.511e+00      -4.105e+00       2.314e-01          -0.777          -0.450           0.440       8.389e-01          0.3527
 469       2.778e+00      -4.104e+00       4.332e-01          -0.374          -0.202           0.905       1.199e+00         -0.5637
 470       3.296e+00      -4.104e+00       5.730e-01          -0.177          -0.086           0.980       1.773e+00         -0.5102
 471       4.036e+00      -4.104e+00       6.719e-01          -0.098          -0.041           0.994       2.303e+00         -0.4391
 472       4.954e+00      -4.104e+00       7.353e-01          -0.044          -0.011           0.999       2.712e+00         -0.4190
 473       5.996e+00      -4.104e+00       7.586e-01          -0.002           0.011           1.000       2.971e+00         -0.4091
 474       7.103e+00      -4.104e+00       7.401e-01           0.035           0.029           0.999       3.063e+00         -0.4053
 475       8.210e+00      -4.104e+00       6.779e-01           0.078           0.049           0.996       2.983e+00         -0.3970
 476       9.253e+00      -4.104e+00       5.696e-01           0.131           0.073           0.989       2.740e+00         -0.3574
 477       1.017e+01      -4.104e+00       4.228e-01           0.188           0.097           0.977       2.343e+00         -0.2784
 478       1.091e+01      -4.104e+00       2.623e-01           0.240           0.117           0.964       1.803e+00         -0.1702
 479       1.143e+01      -4.105e+00       1.246e-01           0.279           0.132           0.951       1.141e+00         -0.0873
 480       1.170e+01      -4.105e+00       2.837e-02           0.477           0.204           0.855       4.314e-01          0.1027
Strip 19
 481       1.067e+01      -1.371e+00      -8.886e-02          -0.040          -0.045          -0.998       3.962e-01          0.1024
 482       1.039e+01      -1.371e+00      -4.409e-02          -0.193          -0.102          -0.976       1.192e+00          0.2803
 483       9.834e+00      -1.371e+00       1.147e-02          -0.040          -0.044          -0.998       1.867e+00          0.3757
 484       9.046e+00      -1.371e+00      -3.049e-02           0.123           0.022          -0.992       2.476e+00          0.3220
 485       8.069e+00      -1.371e+00      -2.001e-01           0.210           0.059          -0.976       2.977e+00          0.1551
 486       6.958e+00      -1.371e+00      -4.246e-01           0.187           0.049          -0.981       3.247e+00         -0.0861
 487       5.779e+00      -1.372e+00      -5.870e-01           0.086           0.001          -0.996       3.294e+00         -0.2469
 488       4.600e+00      -1.372e+00      -6.451e-01           0.011          -0.037          -0.999       3.189e+00         -0.2606
 489       3.490e+00      -1.372e+00      -6.273e-01          -0.045          -0.066          -0.997       2.915e+00         -0.2296
 490       2.512e+00      -1.372e+00      -5.592e-01          -0.097          -0.095          -0.991       2.479e+00         -0.2047
 491       1.725e+00      -1.372e+00      -4.533e-01          -0.177          -0.139          -0.974       1.913e+00         -0.2025
 492       1.173e+00      -1.371e+00      -3.045e-01          -0.368          -0.247          -0.896       1.298e+00         -0.1319
 493       8.885e-01      -1.371e+00      -9.005e-02          -0.769          -0.469          -0.435       9.093e-01          0.5803
 494       8.885e-01      -1.371e+00       1.647e-01          -0.777          -0.451           0.440       8.995e-01          0.4148
 495       1.173e+00      -1.371e+00       3.797e-01          -0.374          -0.202           0.905       1.285e+00         -0.4332
 496       1.725e+00      -1.371e+00       5.285e-01          -0.177          -0.086           0.980       1.901e+00         -0.4112
 497       2.512e+00      -1.371e+00       6.339e-01          -0.098          -0.041           0.994       2.470e+00         -0.3702
 498       3.490e+00      -1.371e+00       7.015e-01          -0.044          -0.011           0.999       2.908e+00         -0.3741
 499       4.600e+00      -1.371e+00       7.262e-01          -0.002           0.011           1.000       3.186e+00         -0.3862
 500       5.779e+00      -1.371e+00       7.065e-01           0.035           0.029           0.999       3.284e+00         -0.4016
 501       6.958e+00      -1.371e+00       6.403e-01           0.078           0.049           0.996       3.199e+00         -0.4101
 502       8.069e+00      -1.371e+00       5.250e-01           0.131           0.073           0.989       2.938e+00         -0.3802
 503       9.046e+00      -1.371e+00       3.686e-01           0.188           0.097           0.977       2.513e+00         -0.3016
 504       9.834e+00      -1.371e+00       1.977e-01           0.240           0.117           0.964       1.934e+00         -0.1884
 505       1.039e+01      -1.371e+00       5.095e-02           0.279           0.132           0.951       1.223e+00         -0.1003
 506       1.067e+01      -1.371e+00      -5.150e-02           0.477           0.204           0.855       4.626e-01          0.0909
Strip 20
 507       1.067e+01       1.371e+00      -8.886e-02          -0.040           0.045          -0.998       3.962e-01          0.1024
 508       1.039e+01       1.371e+00      -4.409e-02          -0.193           0.102          -0.976       1.192e+00          0.2803
 509       9.834e+00       1.371e+00       1.147e-02          -0.040           0.044          -0.998       1.867e+00          0.3757
 510       9.046e+00       1.371e+00      -3.049e-02           0.123          -0.022          -0.992       2.476e+00          0.3220
 511       8.069e+00       1.371e+00      -2.001e-01           0.210          -0.059          -0.976       2.977e+00          0.1551
 512       6.958e+00       1.371e+00      -4.246e-01           0.187          -0.049          -0.981       3.247e+00         -0.0861
 513       5.779e+00       1.372e+00      -5.870e-01           0.086          -0.001          -0.996       3.294e+00         -0.2469
 514       4.600e+00       1.372e+00      -6.451e-01           0.011           0.037          -0.999       3.189e+00         -0.2606
 515       3.490e+00       1.372e+00      -6.273e-01          -0.045           0.066          -0.997       2.915e+00         -0.2296
 516       2.512e+00       1.372e+00      -5.592e-01          -0.097           0.095          -0.991       2.479e+00         -0.2047
 517       1.725e+00       1.372e+00      -4.533e-01          -0.177           0.139          -0.974       1.913e+00         -0.2025
 518       1.173e+00       1.371e+00      -3.045e-01          -0.368           0.247          -0.896       1.298e+00         -0.1319
 519       8.885e-01       1.371e+00      -9.005e-02          -0.769           0.469          -0.435       9.093e-01          0.5803
 520       8.885e-01       1.371e+00       1.647e-01          -0.777           0.451           0.440       8.995e-01          0.4148
 521       1.173e+00       1.371e+00       3.797e-01          -0.374           0.202           0.905       1.285e+00         -0.4332
 522       1.725e+00       1.371e+00       5.285e-01          -0.177           0.086           0.980       1.901e+00         -0.4112
 523       2.512e+00       1.371e+00       6.339e-01          -0.098           0.041           0.994       2.470e+00         -0.3702
 524       3.490e+00       1.371e+00       7.015e-01          -0.044           0.011           0.999       2.908e+00         -0.3741
 525       4.600e+00       1.371e+00       7.262e-01          -0.002          -0.011           1.000       3.186e+00         -0.3862
 526       5.779e+00       1.371e+00       7.065e-01           0.035          -0.029           0.999       3.284e+00         -0.4016
 527       6.958e+00       1.371e+00       6.403e-01           0.078          -0.049           0.996       3.199e+00         -0.4101
 528       8.069e+00       1.371e+00       5.250e-01           0.131          -0.073           0.989       2.938e+00         -0.3802
 529       9.046e+00       1.371e+00       3.686e-01           0.188          -0.097           0.977       2.513e+00         -0.3016
 530       9.834e+00       1.371e+00       1.977e-01           0.240          -0.117           0.964       1.934e+00         -0.1884
 531       1.039e+01       1.371e+00       5.095e-02           0.279          -0.132           0.951       1.223e+00         -0.1003
 532       1.067e+01       1.371e+00      -5.150e-02           0.477          -0.204           0.855       4.626e-01          0.0909
Strip 21
 533       1.170e+01       4.105e+00      -6.715e-03          -0.040           0.045          -0.998       3.695e-01          0.1072
 534       1.143e+01       4.105e+00       3.532e-02          -0.193           0.102          -0.976       1.112e+00          0.2822
 535       1.091e+01       4.105e+00       8.749e-02          -0.040           0.044          -0.998       1.741e+00          0.3804
 536       1.017e+01       4.105e+00       4.810e-02           0.123          -0.022          -0.992       2.309e+00          0.3348
 537       9.253e+00       4.105e+00      -1.111e-01           0.210          -0.059          -0.976       2.777e+00          0.1810
 538       8.210e+00       4.105e+00      -3.220e-01           0.187          -0.049          -0.981       3.028e+00         -0.0528
 539       7.103e+00       4.105e+00      -4.745e-01           0.086          -0.001          -0.996       3.072e+00         -0.2220
 540       5.996e+00       4.105e+00      -5.290e-01           0.011           0.037          -0.999       2.974e+00         -0.2540
 541       4.954e+00       4.105e+00      -5.122e-01          -0.045           0.066          -0.997       2.718e+00         -0.2416
 542       4.036e+00       4.105e+00      -4.483e-01          -0.097           0.095          -0.991       2.312e+00         -0.2302
 543       3.296e+00       4.105e+00      -3.489e-01          -0.177           0.139          -0.974       1.784e+00         -0.2349
 544       2.778e+00       4.105e+00      -2.091e-01          -0.368           0.247          -0.896       1.210e+00         -0.1489
 545       2.511e+00       4.105e+00      -7.826e-03          -0.769           0.469          -0.435       8.478e-01          0.5895
 546       2.511e+00       4.105e+00       2.314e-01          -0.777           0.450           0.440       8.389e-01          0.3527
 547       2.778e+00       4.104e+00       4.332e-01          -0.374           0.202           0.905       1.199e+00         -0.5637
 548       3.296e+00       4.104e+00       5.730e-01          -0.177           0.086           0.980       1.773e+00         -0.5102
 549       4.036e+00       4.104e+00       6.719e-01          -0.098           0.041           0.994       2.303e+00         -0.4391
 550       4.954e+00       4.104e+00       7.353e-01          -0.044           0.011           0.999       2.712e+00         -0.4190
 551       5.996e+00       4.104e+00       7.586e-01          -0.002          -0.011           1.000       2.971e+00         -0.4091
 552       7.103e+00       4.104e+00       7.401e-01           0.035          -0.029           0.999       3.063e+00         -0.4053
 553       8.210e+00       4.104e+00       6.779e-01           0.078          -0.049           0.996       2.983e+00         -0.3970
 554       9.253e+00       4.104e+00       5.696e-01           0.131          -0.073           0.989       2.740e+00         -0.3574
 555       1.017e+01       4.104e+00       4.228e-01           0.188          -0.097           0.977       2.343e+00         -0.2784
 556       1.091e+01       4.104e+00       2.623e-01           0.240          -0.117           0.964       1.803e+00         -0.1702
 557       1.143e+01       4.105e+00       1.246e-01           0.279          -0.132           0.951       1.141e+00         -0.0873
 558       1.170e+01       4.105e+00       2.837e-02           0.477          -0.204           0.855       4.314e-01          0.1027
Strip 22
 559       1.271e+01       6.810e+00       7.459e-02          -0.040           0.045          -0.998       3.410e-01          0.1102
 560       1.246e+01       6.810e+00       1.139e-01          -0.193           0.102          -0.976       1.026e+00          0.2844
 561       1.198e+01       6.810e+00       1.627e-01          -0.040           0.044          -0.998       1.607e+00          0.3824
 562       1.128e+01       6.810e+00       1.259e-01           0.123          -0.022          -0.992       2.131e+00          0.3379
 563       1.043e+01       6.810e+00      -2.312e-02           0.210          -0.059          -0.976       2.562e+00          0.1869
[...]
 853       1.872e+01       2.982e+01       5.698e-01          -0.045           0.066          -0.997       4.669e-01         -0.1828
 854       1.837e+01       2.982e+01       5.946e-01          -0.098           0.095          -0.991       3.969e-01         -0.1543
 855       1.808e+01       2.982e+01       6.331e-01          -0.178           0.139          -0.974       3.060e-01         -0.1213
 856       1.788e+01       2.981e+01       6.874e-01          -0.369           0.248          -0.896       2.072e-01          0.0417
 857       1.777e+01       2.981e+01       7.655e-01          -0.772           0.471          -0.428       1.451e-01          0.6803
 858       1.777e+01       2.981e+01       8.583e-01          -0.774           0.449           0.447       1.447e-01          0.1153
 859       1.788e+01       2.981e+01       9.366e-01          -0.372           0.201           0.906       2.067e-01         -0.8751
 860       1.808e+01       2.981e+01       9.909e-01          -0.177           0.086           0.981       3.052e-01         -0.6935
 861       1.837e+01       2.981e+01       1.029e+00          -0.098           0.041           0.994       3.961e-01         -0.5571
 862       1.872e+01       2.981e+01       1.054e+00          -0.044           0.011           0.999       4.662e-01         -0.4994
 863       1.913e+01       2.981e+01       1.063e+00          -0.002          -0.011           1.000       5.105e-01         -0.4624
 864       1.956e+01       2.981e+01       1.056e+00           0.035          -0.029           0.999       5.261e-01         -0.4381
 865       1.999e+01       2.981e+01       1.032e+00           0.078          -0.049           0.996       5.122e-01         -0.4147
 866       2.039e+01       2.981e+01       9.896e-01           0.131          -0.073           0.989       4.703e-01         -0.3646
 867       2.075e+01       2.981e+01       9.326e-01           0.189          -0.097           0.977       4.021e-01         -0.2788
 868       2.104e+01       2.981e+01       8.703e-01           0.240          -0.117           0.964       3.094e-01         -0.1657
 869       2.124e+01       2.981e+01       8.169e-01           0.280          -0.132           0.951       1.956e-01         -0.0787
 870       2.134e+01       2.981e+01       7.795e-01           0.478          -0.204           0.854       7.391e-02          0.1177
Strip 34
 871       2.175e+01       3.092e+01       7.990e-01          -0.040           0.045          -0.998       4.899e-02          0.1164
 872       2.166e+01       3.091e+01       8.142e-01          -0.193           0.102          -0.976       1.472e-01          0.2860
 873       2.147e+01       3.091e+01       8.331e-01          -0.040           0.044          -0.998       2.308e-01          0.3806
 874       2.120e+01       3.091e+01       8.189e-01           0.123          -0.022          -0.992       3.065e-01          0.3363
 875       2.087e+01       3.092e+01       7.613e-01           0.210          -0.059          -0.976       3.689e-01          0.1904
 876       2.049e+01       3.092e+01       6.850e-01           0.186          -0.049          -0.981       4.023e-01         -0.0287
 877       2.009e+01       3.092e+01       6.298e-01           0.086          -0.001          -0.996       4.077e-01         -0.1850
 878       1.969e+01       3.092e+01       6.101e-01           0.011           0.037          -0.999       3.944e-01         -0.2099
 879       1.931e+01       3.092e+01       6.161e-01          -0.045           0.066          -0.997       3.603e-01         -0.1892
 880       1.898e+01       3.092e+01       6.393e-01          -0.098           0.095          -0.991       3.063e-01         -0.1612
 881       1.871e+01       3.092e+01       6.752e-01          -0.178           0.139          -0.974       2.361e-01         -0.1293
 882       1.853e+01       3.092e+01       7.258e-01          -0.369           0.248          -0.896       1.599e-01          0.0313
 883       1.843e+01       3.092e+01       7.986e-01          -0.772           0.471          -0.427       1.120e-01          0.6756
 884       1.843e+01       3.091e+01       8.852e-01          -0.774           0.448           0.448       1.117e-01          0.1243
 885       1.853e+01       3.091e+01       9.582e-01          -0.372           0.201           0.906       1.596e-01         -0.8600
 886       1.871e+01       3.091e+01       1.009e+00          -0.177           0.086           0.981       2.356e-01         -0.6822
 887       1.898e+01       3.091e+01       1.045e+00          -0.098           0.041           0.994       3.058e-01         -0.5469
 888       1.931e+01       3.091e+01       1.068e+00          -0.044           0.011           0.999       3.598e-01         -0.4887
 889       1.969e+01       3.091e+01       1.076e+00          -0.002          -0.011           1.000       3.940e-01         -0.4507
 890       2.009e+01       3.091e+01       1.069e+00           0.035          -0.029           0.999       4.060e-01         -0.4254
 891       2.049e+01       3.091e+01       1.047e+00           0.078          -0.049           0.996       3.953e-01         -0.4018
 892       2.087e+01       3.091e+01       1.008e+00           0.131          -0.073           0.989       3.629e-01         -0.3529
 893       2.120e+01       3.091e+01       9.544e-01           0.189          -0.097           0.977       3.103e-01         -0.2694
 894       2.147e+01       3.091e+01       8.964e-01           0.240          -0.117           0.964       2.387e-01         -0.1587
 895       2.166e+01       3.091e+01       8.465e-01           0.280          -0.132           0.951       1.509e-01         -0.0738
 896       2.175e+01       3.091e+01       8.117e-01           0.479          -0.205           0.854       5.703e-02          0.1224
Strip 35
 897       2.209e+01       3.181e+01       8.258e-01          -0.040           0.045          -0.998       3.620e-02          0.1160
 898       2.200e+01       3.181e+01       8.401e-01          -0.193           0.102          -0.976       1.088e-01          0.2832
 899       2.182e+01       3.180e+01       8.579e-01          -0.040           0.044          -0.998       1.706e-01          0.3762
 900       2.157e+01       3.181e+01       8.445e-01           0.123          -0.022          -0.992       2.265e-01          0.3318
 901       2.126e+01       3.181e+01       7.902e-01           0.210          -0.059          -0.976       2.727e-01          0.1868
 902       2.090e+01       3.181e+01       7.184e-01           0.186          -0.049          -0.981       2.974e-01         -0.0317
 903       2.052e+01       3.181e+01       6.665e-01           0.086          -0.001          -0.996       3.013e-01         -0.1892
 904       2.015e+01       3.181e+01       6.479e-01           0.011           0.037          -0.999       2.915e-01         -0.2170
 905       1.979e+01       3.181e+01       6.536e-01          -0.045           0.066          -0.997       2.663e-01         -0.1996
 906       1.948e+01       3.181e+01       6.754e-01          -0.098           0.095          -0.991       2.263e-01         -0.1742
 907       1.923e+01       3.181e+01       7.092e-01          -0.178           0.139          -0.974       1.745e-01         -0.1455
 908       1.905e+01       3.181e+01       7.569e-01          -0.370           0.248          -0.895       1.181e-01          0.0093
 909       1.896e+01       3.181e+01       8.254e-01          -0.772           0.471          -0.426       8.271e-02          0.6644
 910       1.896e+01       3.180e+01       9.069e-01          -0.773           0.448           0.448       8.258e-02          0.1414
 911       1.905e+01       3.180e+01       9.756e-01          -0.372           0.201           0.906       1.180e-01         -0.8317
 912       1.923e+01       3.180e+01       1.023e+00          -0.177           0.086           0.981       1.741e-01         -0.6611
 913       1.948e+01       3.180e+01       1.057e+00          -0.098           0.041           0.994       2.260e-01         -0.5271
 914       1.979e+01       3.180e+01       1.079e+00          -0.044           0.011           0.999       2.659e-01         -0.4672
 915       2.015e+01       3.180e+01       1.086e+00          -0.002          -0.011           1.000       2.911e-01         -0.4262
 916       2.052e+01       3.180e+01       1.080e+00           0.035          -0.029           0.999       3.000e-01         -0.3987
 917       2.090e+01       3.180e+01       1.059e+00           0.078          -0.049           0.996       2.921e-01         -0.3753
 918       2.126e+01       3.180e+01       1.022e+00           0.131          -0.073           0.989       2.682e-01         -0.3296
 919       2.157e+01       3.180e+01       9.721e-01           0.189          -0.097           0.977       2.292e-01         -0.2518
 920       2.182e+01       3.180e+01       9.174e-01           0.240          -0.117           0.964       1.764e-01         -0.1469
 921       2.200e+01       3.180e+01       8.705e-01           0.280          -0.132           0.951       1.115e-01         -0.0666
 922       2.209e+01       3.181e+01       8.378e-01           0.479          -0.205           0.854       4.213e-02          0.1293
Strip 36
 923       2.234e+01       3.248e+01       8.460e-01          -0.040           0.045          -0.998       2.481e-02          0.1040
 924       2.225e+01       3.248e+01       8.597e-01          -0.193           0.102          -0.976       7.455e-02          0.2672
 925       2.209e+01       3.248e+01       8.766e-01          -0.040           0.044          -0.998       1.169e-01          0.3590
 926       2.185e+01       3.248e+01       8.638e-01           0.123          -0.022          -0.992       1.553e-01          0.3183
 927       2.155e+01       3.248e+01       8.121e-01           0.210          -0.059          -0.976       1.869e-01          0.1802
 928       2.121e+01       3.248e+01       7.437e-01           0.186          -0.049          -0.981       2.038e-01         -0.0308
 929       2.085e+01       3.248e+01       6.942e-01           0.086          -0.001          -0.996       2.066e-01         -0.1844
 930       2.049e+01       3.248e+01       6.765e-01           0.011           0.037          -0.999       1.998e-01         -0.2160
 931       2.015e+01       3.248e+01       6.820e-01          -0.045           0.066          -0.997       1.825e-01         -0.2082
 932       1.985e+01       3.248e+01       7.027e-01          -0.098           0.095          -0.991       1.551e-01         -0.1936
 933       1.961e+01       3.248e+01       7.350e-01          -0.178           0.139          -0.974       1.196e-01         -0.1741
 934       1.944e+01       3.248e+01       7.803e-01          -0.370           0.248          -0.895       8.091e-02         -0.0312
 935       1.936e+01       3.248e+01       8.457e-01          -0.772           0.471          -0.426       5.667e-02          0.6377
 936       1.936e+01       3.248e+01       9.233e-01          -0.773           0.448           0.449       5.662e-02          0.1606
 937       1.944e+01       3.248e+01       9.888e-01          -0.372           0.201           0.906       8.089e-02         -0.7912
 938       1.961e+01       3.247e+01       1.034e+00          -0.177           0.086           0.981       1.194e-01         -0.6276
 939       1.985e+01       3.247e+01       1.066e+00          -0.098           0.041           0.994       1.549e-01         -0.4917
 940       2.015e+01       3.247e+01       1.087e+00          -0.044           0.011           0.999       1.823e-01         -0.4244
 941       2.049e+01       3.247e+01       1.094e+00          -0.002          -0.011           1.000       1.995e-01         -0.3774
 942       2.085e+01       3.247e+01       1.088e+00           0.035          -0.029           0.999       2.056e-01         -0.3489
 943       2.121e+01       3.247e+01       1.068e+00           0.078          -0.049           0.996       2.002e-01         -0.3296
 944       2.155e+01       3.247e+01       1.033e+00           0.131          -0.073           0.989       1.838e-01         -0.2928
 945       2.185e+01       3.248e+01       9.854e-01           0.189          -0.097           0.977       1.571e-01         -0.2275
 946       2.209e+01       3.248e+01       9.334e-01           0.240          -0.117           0.964       1.209e-01         -0.1357
 947       2.225e+01       3.248e+01       8.886e-01           0.280          -0.132           0.951       7.643e-02         -0.0672
 948       2.234e+01       3.248e+01       8.574e-01           0.479          -0.205           0.854       2.887e-02          0.1285
Strip 37
 949       2.251e+01       3.293e+01       8.596e-01          -0.040           0.045          -0.998       1.446e-02          0.0391
 950       2.243e+01       3.293e+01       8.728e-01          -0.193           0.102          -0.976       4.344e-02          0.1870
 951       2.226e+01       3.293e+01       8.892e-01          -0.040           0.044          -0.998       6.814e-02          0.2828
 952       2.203e+01       3.293e+01       8.768e-01           0.123          -0.022          -0.992       9.049e-02          0.2665
 953       2.174e+01       3.293e+01       8.268e-01           0.210          -0.059          -0.976       1.089e-01          0.1570
 954       2.142e+01       3.293e+01       7.607e-01           0.186          -0.049          -0.981       1.188e-01         -0.0280
 955       2.107e+01       3.293e+01       7.128e-01           0.086          -0.001          -0.996       1.204e-01         -0.1625
 956       2.072e+01       3.293e+01       6.957e-01           0.011           0.037          -0.999       1.164e-01         -0.1893
 957       2.039e+01       3.293e+01       7.010e-01          -0.045           0.066          -0.997       1.064e-01         -0.1911
 958       2.010e+01       3.293e+01       7.210e-01          -0.098           0.095          -0.991       9.038e-02         -0.2004
 959       1.987e+01       3.293e+01       7.522e-01          -0.178           0.139          -0.974       6.967e-02         -0.2151
 960       1.971e+01       3.293e+01       7.961e-01          -0.370           0.248          -0.895       4.715e-02         -0.1110
 961       1.963e+01       3.293e+01       8.593e-01          -0.773           0.472          -0.425       3.302e-02          0.5493
 962       1.963e+01       3.293e+01       9.343e-01          -0.773           0.448           0.450       3.301e-02          0.1464
 963       1.971e+01       3.293e+01       9.977e-01          -0.372           0.201           0.906       4.715e-02         -0.7428
 964       1.987e+01       3.293e+01       1.042e+00          -0.176           0.086           0.981       6.958e-02         -0.5688
 965       2.010e+01       3.292e+01       1.073e+00          -0.098           0.041           0.994       9.028e-02         -0.4184
 966       2.039e+01       3.292e+01       1.092e+00          -0.044           0.011           0.999       1.062e-01         -0.3444
 967       2.072e+01       3.292e+01       1.100e+00          -0.002          -0.011           1.000       1.163e-01         -0.3012
 968       2.107e+01       3.292e+01       1.094e+00           0.035          -0.029           0.999       1.198e-01         -0.2797
 969       2.142e+01       3.292e+01       1.074e+00           0.078          -0.049           0.996       1.167e-01         -0.2704
 970       2.174e+01       3.293e+01       1.040e+00           0.131          -0.073           0.989       1.071e-01         -0.2523
 971       2.203e+01       3.293e+01       9.944e-01           0.189          -0.097           0.977       9.155e-02         -0.2175
 972       2.226e+01       3.293e+01       9.440e-01           0.240          -0.117           0.964       7.043e-02         -0.1623
 973       2.243e+01       3.293e+01       9.008e-01           0.280          -0.132           0.951       4.454e-02         -0.1267
 974       2.251e+01       3.293e+01       8.706e-01           0.479          -0.205           0.854       1.682e-02          0.0713
Strip 38
 975       2.259e+01       3.316e+01       8.664e-01          -0.040           0.045          -0.998       4.748e-03         -0.0331
 976       2.251e+01       3.316e+01       8.794e-01          -0.193           0.102          -0.976       1.426e-02          0.0632
 977       2.235e+01       3.316e+01       8.955e-01          -0.040           0.044          -0.998       2.237e-02          0.1309
 978       2.212e+01       3.316e+01       8.833e-01           0.123          -0.022          -0.992       2.972e-02          0.1433
 979       2.184e+01       3.316e+01       8.342e-01           0.210          -0.059          -0.976       3.578e-02          0.0890
 980       2.152e+01       3.316e+01       7.692e-01           0.186          -0.049          -0.981       3.901e-02         -0.0338
 981       2.118e+01       3.316e+01       7.221e-01           0.086          -0.001          -0.996       3.953e-02         -0.1272
 982       2.084e+01       3.316e+01       7.053e-01           0.011           0.037          -0.999       3.823e-02         -0.1450
 983       2.051e+01       3.316e+01       7.105e-01          -0.045           0.066          -0.997       3.492e-02         -0.1473
 984       2.023e+01       3.316e+01       7.302e-01          -0.098           0.095          -0.991       2.968e-02         -0.1592
 985       2.000e+01       3.316e+01       7.609e-01          -0.178           0.139          -0.974       2.287e-02         -0.1894
 986       1.984e+01       3.316e+01       8.040e-01          -0.370           0.248          -0.895       1.548e-02         -0.1424
 987       1.976e+01       3.316e+01       8.661e-01          -0.773           0.472          -0.425       1.084e-02          0.4646
 988       1.976e+01       3.315e+01       9.399e-01          -0.773           0.448           0.450       1.084e-02          0.1503
 989       1.984e+01       3.315e+01       1.002e+00          -0.372           0.200           0.907       1.549e-02         -0.6320
 990       2.000e+01       3.315e+01       1.045e+00          -0.176           0.086           0.981       2.285e-02         -0.4501
 991       2.023e+01       3.315e+01       1.076e+00          -0.098           0.041           0.994       2.965e-02         -0.3171
 992       2.051e+01       3.315e+01       1.095e+00          -0.044           0.011           0.999       3.488e-02         -0.2626
 993       2.084e+01       3.315e+01       1.102e+00          -0.002          -0.011           1.000       3.819e-02         -0.2312
 994       2.118e+01       3.315e+01       1.097e+00           0.035          -0.029           0.999       3.935e-02         -0.2122
 995       2.152e+01       3.315e+01       1.078e+00           0.078          -0.049           0.996       3.831e-02         -0.1987
 996       2.184e+01       3.315e+01       1.044e+00           0.131          -0.073           0.989       3.517e-02         -0.1793
 997       2.212e+01       3.315e+01       9.989e-01           0.189          -0.097           0.977       3.006e-02         -0.1606
 998       2.235e+01       3.315e+01       9.494e-01           0.240          -0.117           0.964       2.313e-02         -0.1522
 999       2.251e+01       3.316e+01       9.069e-01           0.280          -0.132           0.951       1.462e-02         -0.1653
1000       2.259e+01       3.316e+01       8.772e-01           0.479          -0.205           0.854       5.523e-03          0.0204










