xflr5 v6.60

Plane Name
T1-10.0 m/s-Panel-Inviscid
QInf  =   10.000000 m/s
Alpha =   10.000000
Beta  =    0.000°
Phi   =    0.000°
Ctrl  =    0.000
CL    =    1.200783
Cy    =    0.000000
Cd    =    0.044154     ICd   =    0.044154     PCd   =    0.000000
Cl   = -4.60037e-16
Cm   =    -1.85126
ICn   =    0.000000     PCn   =    0.000000 
XCP   =   11.120942     YCP   =    0.000000     ZCP   =    0.624262  
XNP   =    0.000000
Bending = 206208.047531

Main Wing
  y-span        Chord      Ai         Cl        PCd          ICd        CmGeom    CmAirf@chord/4    XTrtop    XTrBot      XCP       BM
  -33.1683     2.8766    -9.972    0.454407    0.000000    0.079899   -3.577192    0.010592     0.0000    0.0000    0.2244    0.0000
  -32.9417     2.9268    -7.366    0.741883    0.000000    0.095895   -5.424102   -0.032382     0.0000    0.0000    0.2874    2.1301
  -32.4901     3.0269    -5.696    0.982471    0.000000    0.097967   -6.715332   -0.045580     0.0000    0.0000    0.2907   27.4845
  -31.8166     3.1762    -4.391    1.151910    0.000000    0.088413   -7.404270   -0.065524     0.0000    0.0000    0.3012   136.8343
  -30.9257     3.3737    -3.400    1.258176    0.000000    0.074721   -7.470357   -0.081488     0.0000    0.0000    0.3090   443.3233
  -29.8235     3.6181    -2.683    1.316525    0.000000    0.061658   -7.091250   -0.091454     0.0000    0.0000    0.3136   1118.4354
  -28.5177     3.9076    -2.212    1.342596    0.000000    0.051807   -6.461403   -0.096943     0.0000    0.0000    0.3163   2393.7502
  -27.0170     4.2402    -1.934    1.348116    0.000000    0.045479   -5.723781   -0.099800     0.0000    0.0000    0.3181   4560.6314
  -25.3318     4.6138    -1.795    1.340516    0.000000    0.041945   -4.966568   -0.101218     0.0000    0.0000    0.3196   7968.1276
  -23.4736     5.0258    -1.749    1.324181    0.000000    0.040367   -4.239143   -0.101852     0.0000    0.0000    0.3210   13018.1765
  -21.4549     5.4733    -1.766    1.301588    0.000000    0.040073   -3.566553   -0.102057     0.0000    0.0000    0.3225   20157.1047
  -19.2898     5.9533    -1.827    1.274038    0.000000    0.040556   -2.959449   -0.102007     0.0000    0.0000    0.3242   29862.6905
  -16.9929     6.4625    -1.916    1.242131    0.000000    0.041460   -2.420329   -0.101820     0.0000    0.0000    0.3262   42626.4104
  -14.5798     6.9974    -2.022    1.205956    0.000000    0.042485   -1.947218   -0.101588     0.0000    0.0000    0.3285   58930.9731
  -12.0672     7.5544    -2.136    1.165212    0.000000    0.043340   -1.536093   -0.101432     0.0000    0.0000    0.3314   79223.5126
   -9.4722     8.1297    -2.241    1.119204    0.000000    0.043645   -1.182202   -0.101614     0.0000    0.0000    0.3352   103885.2324
   -6.8125     8.7194    -2.308    1.066806    0.000000    0.042787   -0.881249   -0.102773     0.0000    0.0000    0.3409   133198.4675
   -4.1062     9.3193    -2.264    1.006251    0.000000    0.039422   -0.630509   -0.106693     0.0000    0.0000    0.3510   167312.3687
   -1.3718     9.9255    -1.826    0.933034    0.000000    0.028629   -0.431982   -0.120110     0.0000    0.0000    0.3750   206208.0475
    1.3718     9.9255    -1.826    0.933034    0.000000    0.028629   -0.431982   -0.120110     0.0000    0.0000    0.3750   206208.0475
    4.1062     9.3193    -2.264    1.006251    0.000000    0.039422   -0.630509   -0.106693     0.0000    0.0000    0.3510   167312.3687
    6.8125     8.7194    -2.308    1.066806    0.000000    0.042787   -0.881249   -0.102773     0.0000    0.0000    0.3409   133198.4675
    9.4722     8.1297    -2.241    1.119204    0.000000    0.043645   -1.182202   -0.101614     0.0000    0.0000    0.3352   103885.2324
   12.0672     7.5544    -2.136    1.165212    0.000000    0.043340   -1.536093   -0.101432     0.0000    0.0000    0.3314   79223.5126
   14.5798     6.9974    -2.022    1.205956    0.000000    0.042485   -1.947218   -0.101588     0.0000    0.0000    0.3285   58930.9731
   16.9929     6.4625    -1.916    1.242131    0.000000    0.041460   -2.420329   -0.101820     0.0000    0.0000    0.3262   42626.4104
   19.2898     5.9533    -1.827    1.274038    0.000000    0.040556   -2.959449   -0.102007     0.0000    0.0000    0.3242   29862.6905
   21.4549     5.4733    -1.766    1.301588    0.000000    0.040073   -3.566553   -0.102057     0.0000    0.0000    0.3225   20157.1047
   23.4736     5.0258    -1.749    1.324181    0.000000    0.040367   -4.239143   -0.101852     0.0000    0.0000    0.3210   13018.1765
   25.3318     4.6138    -1.795    1.340516    0.000000    0.041945   -4.966568   -0.101218     0.0000    0.0000    0.3196   7968.1276
   27.0170     4.2402    -1.934    1.348116    0.000000    0.045479   -5.723781   -0.099800     0.0000    0.0000    0.3181   4560.6314
   28.5177     3.9076    -2.212    1.342596    0.000000    0.051807   -6.461403   -0.096943     0.0000    0.0000    0.3163   2393.7502
   29.8235     3.6181    -2.683    1.316525    0.000000    0.061658   -7.091250   -0.091454     0.0000    0.0000    0.3136   1118.4354
   30.9257     3.3737    -3.400    1.258176    0.000000    0.074721   -7.470357   -0.081488     0.0000    0.0000    0.3090   443.3233
   31.8166     3.1762    -4.391    1.151910    0.000000    0.088413   -7.404270   -0.065524     0.0000    0.0000    0.3012   136.8343
   32.4901     3.0269    -5.696    0.982471    0.000000    0.097967   -6.715332   -0.045580     0.0000    0.0000    0.2907   27.4845
   32.9417     2.9268    -7.366    0.741883    0.000000    0.095895   -5.424102   -0.032382     0.0000    0.0000    0.2874    2.1301
   33.1683     2.8766    -9.972    0.454407    0.000000    0.079899   -3.577192    0.010592     0.0000    0.0000    0.2244    0.0000


Main Wing Cp Coefficients
 Panel     CtrlPt.x        CtrlPt.y        CtrlPt.z       Nx      Ny       Nz        Area       Cp
Main WingCp Coefficients
Strip 1
  13       2.259e+01      -3.316e+01       8.664e-01          -0.040          -0.045          -0.998       4.748e-03         -1.0470
  14       2.251e+01      -3.316e+01       8.794e-01          -0.193          -0.102          -0.976       1.426e-02         -1.0638
  15       2.235e+01      -3.316e+01       8.955e-01          -0.040          -0.044          -0.998       2.237e-02         -0.9531
  16       2.212e+01      -3.316e+01       8.833e-01           0.123           0.022          -0.992       2.972e-02         -0.7072
  17       2.184e+01      -3.316e+01       8.342e-01           0.210           0.059          -0.976       3.578e-02         -0.4676
  18       2.152e+01      -3.316e+01       7.692e-01           0.186           0.049          -0.981       3.901e-02         -0.3339
  19       2.118e+01      -3.316e+01       7.221e-01           0.086           0.001          -0.996       3.953e-02         -0.2634
  20       2.084e+01      -3.316e+01       7.053e-01           0.011          -0.037          -0.999       3.823e-02         -0.1993
  21       2.051e+01      -3.316e+01       7.105e-01          -0.045          -0.066          -0.997       3.492e-02         -0.1363
  22       2.023e+01      -3.316e+01       7.302e-01          -0.098          -0.095          -0.991       2.968e-02         -0.0510
  23       2.000e+01      -3.316e+01       7.609e-01          -0.178          -0.139          -0.974       2.287e-02          0.1072
  24       1.984e+01      -3.316e+01       8.040e-01          -0.370          -0.248          -0.895       1.548e-02          0.3552
  25       1.976e+01      -3.316e+01       8.661e-01          -0.773          -0.472          -0.425       1.084e-02         -0.0723
  26       1.976e+01      -3.315e+01       9.399e-01          -0.773          -0.448           0.450       1.084e-02         -2.1030
  27       1.984e+01      -3.315e+01       1.002e+00          -0.372          -0.200           0.907       1.549e-02         -2.5897
  28       2.000e+01      -3.315e+01       1.045e+00          -0.176          -0.086           0.981       2.285e-02         -1.3327
  29       2.023e+01      -3.315e+01       1.076e+00          -0.098          -0.041           0.994       2.965e-02         -0.8471
  30       2.051e+01      -3.315e+01       1.095e+00          -0.044          -0.011           0.999       3.488e-02         -0.6722
  31       2.084e+01      -3.315e+01       1.102e+00          -0.002           0.011           1.000       3.819e-02         -0.5852
  32       2.118e+01      -3.315e+01       1.097e+00           0.035           0.029           0.999       3.935e-02         -0.5462
  33       2.152e+01      -3.315e+01       1.078e+00           0.078           0.049           0.996       3.831e-02         -0.5544
  34       2.184e+01      -3.315e+01       1.044e+00           0.131           0.073           0.989       3.517e-02         -0.6273
  35       2.212e+01      -3.315e+01       9.989e-01           0.189           0.097           0.977       3.006e-02         -0.7996
  36       2.235e+01      -3.315e+01       9.494e-01           0.240           0.117           0.964       2.313e-02         -1.0340
  37       2.251e+01      -3.316e+01       9.069e-01           0.280           0.132           0.951       1.462e-02         -1.1479
  38       2.259e+01      -3.316e+01       8.772e-01           0.479           0.205           0.854       5.523e-03         -0.8495
Strip 2
  39       2.251e+01      -3.293e+01       8.596e-01          -0.040          -0.045          -0.998       1.446e-02         -0.4855
  40       2.243e+01      -3.293e+01       8.728e-01          -0.193          -0.102          -0.976       4.344e-02         -0.3825
  41       2.226e+01      -3.293e+01       8.892e-01          -0.040          -0.044          -0.998       6.814e-02         -0.2886
  42       2.203e+01      -3.293e+01       8.768e-01           0.123           0.022          -0.992       9.049e-02         -0.1962
  43       2.174e+01      -3.293e+01       8.268e-01           0.210           0.059          -0.976       1.089e-01         -0.1457
  44       2.142e+01      -3.293e+01       7.607e-01           0.186           0.049          -0.981       1.188e-01         -0.1678
  45       2.107e+01      -3.293e+01       7.128e-01           0.086           0.001          -0.996       1.204e-01         -0.1753
  46       2.072e+01      -3.293e+01       6.957e-01           0.011          -0.037          -0.999       1.164e-01         -0.1212
  47       2.039e+01      -3.293e+01       7.010e-01          -0.045          -0.066          -0.997       1.064e-01         -0.0375
  48       2.010e+01      -3.293e+01       7.210e-01          -0.098          -0.095          -0.991       9.038e-02          0.0851
  49       1.987e+01      -3.293e+01       7.522e-01          -0.178          -0.139          -0.974       6.967e-02          0.2834
  50       1.971e+01      -3.293e+01       7.961e-01          -0.370          -0.248          -0.895       4.715e-02          0.5056
  51       1.963e+01      -3.293e+01       8.593e-01          -0.773          -0.472          -0.425       3.302e-02         -0.3090
  52       1.963e+01      -3.293e+01       9.343e-01          -0.773          -0.448           0.450       3.301e-02         -2.8960
  53       1.971e+01      -3.293e+01       9.977e-01          -0.372          -0.201           0.906       4.715e-02         -3.3466
  54       1.987e+01      -3.293e+01       1.042e+00          -0.176          -0.086           0.981       6.958e-02         -1.7432
  55       2.010e+01      -3.292e+01       1.073e+00          -0.098          -0.041           0.994       9.028e-02         -1.0670
  56       2.039e+01      -3.292e+01       1.092e+00          -0.044          -0.011           0.999       1.062e-01         -0.7817
  57       2.072e+01      -3.292e+01       1.100e+00          -0.002           0.011           1.000       1.163e-01         -0.6408
  58       2.107e+01      -3.292e+01       1.094e+00           0.035           0.029           0.999       1.198e-01         -0.5776
  59       2.142e+01      -3.292e+01       1.074e+00           0.078           0.049           0.996       1.167e-01         -0.5661
  60       2.174e+01      -3.293e+01       1.040e+00           0.131           0.073           0.989       1.071e-01         -0.5845
  61       2.203e+01      -3.293e+01       9.944e-01           0.189           0.097           0.977       9.155e-02         -0.6223
  62       2.226e+01      -3.293e+01       9.440e-01           0.240           0.117           0.964       7.043e-02         -0.6351
  63       2.243e+01      -3.293e+01       9.008e-01           0.280           0.132           0.951       4.454e-02         -0.6165
  64       2.251e+01      -3.293e+01       8.706e-01           0.479           0.205           0.854       1.682e-02         -0.3000
Strip 3
  65       2.234e+01      -3.248e+01       8.460e-01          -0.040          -0.045          -0.998       2.481e-02         -0.0331
  66       2.225e+01      -3.248e+01       8.597e-01          -0.193          -0.102          -0.976       7.455e-02          0.1458
  67       2.209e+01      -3.248e+01       8.766e-01          -0.040          -0.044          -0.998       1.169e-01          0.2088
  68       2.185e+01      -3.248e+01       8.638e-01           0.123           0.022          -0.992       1.553e-01          0.1788
  69       2.155e+01      -3.248e+01       8.121e-01           0.210           0.059          -0.976       1.869e-01          0.0942
  70       2.121e+01      -3.248e+01       7.437e-01           0.186           0.049          -0.981       2.038e-01         -0.0164
  71       2.085e+01      -3.248e+01       6.942e-01           0.086           0.001          -0.996       2.066e-01         -0.0555
  72       2.049e+01      -3.248e+01       6.765e-01           0.011          -0.037          -0.999       1.998e-01          0.0061
  73       2.015e+01      -3.248e+01       6.820e-01          -0.045          -0.066          -0.997       1.825e-01          0.1206
  74       1.985e+01      -3.248e+01       7.027e-01          -0.098          -0.095          -0.991       1.551e-01          0.2802
  75       1.961e+01      -3.248e+01       7.350e-01          -0.178          -0.139          -0.974       1.196e-01          0.4929
  76       1.944e+01      -3.248e+01       7.803e-01          -0.370          -0.248          -0.895       8.091e-02          0.6401
  77       1.936e+01      -3.248e+01       8.457e-01          -0.772          -0.471          -0.426       5.667e-02         -0.5092
  78       1.936e+01      -3.248e+01       9.233e-01          -0.773          -0.448           0.449       5.662e-02         -3.5202
  79       1.944e+01      -3.248e+01       9.888e-01          -0.372          -0.201           0.906       8.089e-02         -3.9310
  80       1.961e+01      -3.247e+01       1.034e+00          -0.177          -0.086           0.981       1.194e-01         -2.0947
  81       1.985e+01      -3.247e+01       1.066e+00          -0.098          -0.041           0.994       1.549e-01         -1.3097
  82       2.015e+01      -3.247e+01       1.087e+00          -0.044          -0.011           0.999       1.823e-01         -0.9426
  83       2.049e+01      -3.247e+01       1.094e+00          -0.002           0.011           1.000       1.995e-01         -0.7302
  84       2.085e+01      -3.247e+01       1.088e+00           0.035           0.029           0.999       2.056e-01         -0.6056
  85       2.121e+01      -3.247e+01       1.068e+00           0.078           0.049           0.996       2.002e-01         -0.5253
  86       2.155e+01      -3.247e+01       1.033e+00           0.131           0.073           0.989       1.838e-01         -0.4462
  87       2.185e+01      -3.248e+01       9.854e-01           0.189           0.097           0.977       1.571e-01         -0.3504
  88       2.209e+01      -3.248e+01       9.334e-01           0.240           0.117           0.964       1.209e-01         -0.2275
  89       2.225e+01      -3.248e+01       8.886e-01           0.280           0.132           0.951       7.643e-02         -0.1376
  90       2.234e+01      -3.248e+01       8.574e-01           0.479           0.205           0.854       2.887e-02          0.1515
Strip 4
  91       2.209e+01      -3.181e+01       8.258e-01          -0.040          -0.045          -0.998       3.620e-02          0.0560
  92       2.200e+01      -3.181e+01       8.401e-01          -0.193          -0.102          -0.976       1.088e-01          0.2600
  93       2.182e+01      -3.180e+01       8.579e-01          -0.040          -0.044          -0.998       1.706e-01          0.3334
  94       2.157e+01      -3.181e+01       8.445e-01           0.123           0.022          -0.992       2.265e-01          0.2966
  95       2.126e+01      -3.181e+01       7.902e-01           0.210           0.059          -0.976       2.727e-01          0.1975
  96       2.090e+01      -3.181e+01       7.184e-01           0.186           0.049          -0.981       2.974e-01          0.0753
  97       2.052e+01      -3.181e+01       6.665e-01           0.086           0.001          -0.996       3.013e-01          0.0360
  98       2.015e+01      -3.181e+01       6.479e-01           0.011          -0.037          -0.999       2.915e-01          0.1063
  99       1.979e+01      -3.181e+01       6.536e-01          -0.045          -0.066          -0.997       2.663e-01          0.2291
 100       1.948e+01      -3.181e+01       6.754e-01          -0.098          -0.095          -0.991       2.263e-01          0.3870
 101       1.923e+01      -3.181e+01       7.092e-01          -0.178          -0.139          -0.974       1.745e-01          0.5821
 102       1.905e+01      -3.181e+01       7.569e-01          -0.370          -0.248          -0.895       1.181e-01          0.6554
 103       1.896e+01      -3.181e+01       8.254e-01          -0.772          -0.471          -0.426       8.271e-02         -0.7246
 104       1.896e+01      -3.180e+01       9.069e-01          -0.773          -0.448           0.448       8.258e-02         -3.9749
 105       1.905e+01      -3.180e+01       9.756e-01          -0.372          -0.201           0.906       1.180e-01         -4.3240
 106       1.923e+01      -3.180e+01       1.023e+00          -0.177          -0.086           0.981       1.741e-01         -2.3193
 107       1.948e+01      -3.180e+01       1.057e+00          -0.098          -0.041           0.994       2.260e-01         -1.4761
 108       1.979e+01      -3.180e+01       1.079e+00          -0.044          -0.011           0.999       2.659e-01         -1.0801
 109       2.015e+01      -3.180e+01       1.086e+00          -0.002           0.011           1.000       2.911e-01         -0.8392
 110       2.052e+01      -3.180e+01       1.080e+00           0.035           0.029           0.999       3.000e-01         -0.6823
 111       2.090e+01      -3.180e+01       1.059e+00           0.078           0.049           0.996       2.921e-01         -0.5684
 112       2.126e+01      -3.180e+01       1.022e+00           0.131           0.073           0.989       2.682e-01         -0.4553
 113       2.157e+01      -3.180e+01       9.721e-01           0.189           0.097           0.977       2.292e-01         -0.3245
 114       2.182e+01      -3.180e+01       9.174e-01           0.240           0.117           0.964       1.764e-01         -0.1734
 115       2.200e+01      -3.180e+01       8.705e-01           0.280           0.132           0.951       1.115e-01         -0.0659
 116       2.209e+01      -3.181e+01       8.378e-01           0.479           0.205           0.854       4.213e-02          0.2113
Strip 5
 117       2.175e+01      -3.092e+01       7.990e-01          -0.040          -0.045          -0.998       4.899e-02          0.0847
 118       2.166e+01      -3.091e+01       8.142e-01          -0.193          -0.102          -0.976       1.472e-01          0.3008
 119       2.147e+01      -3.091e+01       8.331e-01          -0.040          -0.044          -0.998       2.308e-01          0.3815
 120       2.120e+01      -3.091e+01       8.189e-01           0.123           0.022          -0.992       3.065e-01          0.3476
 121       2.087e+01      -3.092e+01       7.613e-01           0.210           0.059          -0.976       3.689e-01          0.2495
 122       2.049e+01      -3.092e+01       6.850e-01           0.186           0.049          -0.981       4.023e-01          0.1295
 123       2.009e+01      -3.092e+01       6.298e-01           0.086           0.001          -0.996       4.077e-01          0.0943
 124       1.969e+01      -3.092e+01       6.101e-01           0.011          -0.037          -0.999       3.944e-01          0.1666
 125       1.931e+01      -3.092e+01       6.161e-01          -0.045          -0.066          -0.997       3.603e-01          0.2872
 126       1.898e+01      -3.092e+01       6.393e-01          -0.098          -0.095          -0.991       3.063e-01          0.4387
 127       1.871e+01      -3.092e+01       6.752e-01          -0.178          -0.139          -0.974       2.361e-01          0.6216
 128       1.853e+01      -3.092e+01       7.258e-01          -0.369          -0.248          -0.896       1.599e-01          0.6482
 129       1.843e+01      -3.092e+01       7.986e-01          -0.772          -0.471          -0.427       1.120e-01         -0.8731
 130       1.843e+01      -3.091e+01       8.852e-01          -0.774          -0.448           0.448       1.117e-01         -4.2670
 131       1.853e+01      -3.091e+01       9.582e-01          -0.372          -0.201           0.906       1.596e-01         -4.5702
 132       1.871e+01      -3.091e+01       1.009e+00          -0.177          -0.086           0.981       2.356e-01         -2.4552
 133       1.898e+01      -3.091e+01       1.045e+00          -0.098          -0.041           0.994       3.058e-01         -1.5764
 134       1.931e+01      -3.091e+01       1.068e+00          -0.044          -0.011           0.999       3.598e-01         -1.1664
 135       1.969e+01      -3.091e+01       1.076e+00          -0.002           0.011           1.000       3.940e-01         -0.9157
 136       2.009e+01      -3.091e+01       1.069e+00           0.035           0.029           0.999       4.060e-01         -0.7478
 137       2.049e+01      -3.091e+01       1.047e+00           0.078           0.049           0.996       3.953e-01         -0.6198
 138       2.087e+01      -3.091e+01       1.008e+00           0.131           0.073           0.989       3.629e-01         -0.4891
 139       2.120e+01      -3.091e+01       9.544e-01           0.189           0.097           0.977       3.103e-01         -0.3395
 140       2.147e+01      -3.091e+01       8.964e-01           0.240           0.117           0.964       2.387e-01         -0.1738
 141       2.166e+01      -3.091e+01       8.465e-01           0.280           0.132           0.951       1.509e-01         -0.0558
 142       2.175e+01      -3.091e+01       8.117e-01           0.479           0.205           0.854       5.703e-02          0.2181
Strip 6
 143       2.134e+01      -2.981e+01       7.659e-01          -0.040          -0.045          -0.998       6.347e-02          0.0973
 144       2.124e+01      -2.981e+01       7.822e-01          -0.193          -0.102          -0.976       1.908e-01          0.3196
 145       2.104e+01      -2.981e+01       8.025e-01          -0.040          -0.044          -0.998       2.991e-01          0.4046
 146       2.075e+01      -2.981e+01       7.872e-01           0.123           0.022          -0.992       3.971e-01          0.3733
 147       2.039e+01      -2.981e+01       7.254e-01           0.210           0.059          -0.976       4.779e-01          0.2774
 148       1.999e+01      -2.982e+01       6.436e-01           0.186           0.049          -0.981       5.212e-01          0.1600
 149       1.956e+01      -2.982e+01       5.844e-01           0.086           0.001          -0.996       5.283e-01          0.1267
 150       1.913e+01      -2.982e+01       5.633e-01           0.011          -0.037          -0.999       5.110e-01          0.1986
 151       1.872e+01      -2.982e+01       5.698e-01          -0.045          -0.066          -0.997       4.669e-01          0.3166
 152       1.837e+01      -2.982e+01       5.946e-01          -0.098          -0.095          -0.991       3.969e-01          0.4639
 153       1.808e+01      -2.982e+01       6.331e-01          -0.178          -0.139          -0.974       3.060e-01          0.6401
 154       1.788e+01      -2.981e+01       6.874e-01          -0.369          -0.248          -0.896       2.072e-01          0.6421
 155       1.777e+01      -2.981e+01       7.655e-01          -0.772          -0.471          -0.428       1.451e-01         -0.9504
 156       1.777e+01      -2.981e+01       8.583e-01          -0.774          -0.449           0.447       1.447e-01         -4.4202
 157       1.788e+01      -2.981e+01       9.366e-01          -0.372          -0.201           0.906       2.067e-01         -4.6999
 158       1.808e+01      -2.981e+01       9.909e-01          -0.177          -0.086           0.981       3.052e-01         -2.5263
 159       1.837e+01      -2.981e+01       1.029e+00          -0.098          -0.041           0.994       3.961e-01         -1.6292
 160       1.872e+01      -2.981e+01       1.054e+00          -0.044          -0.011           0.999       4.662e-01         -1.2125
 161       1.913e+01      -2.981e+01       1.063e+00          -0.002           0.011           1.000       5.105e-01         -0.9581
 162       1.956e+01      -2.981e+01       1.056e+00           0.035           0.029           0.999       5.261e-01         -0.7864
 163       1.999e+01      -2.981e+01       1.032e+00           0.078           0.049           0.996       5.122e-01         -0.6528
 164       2.039e+01      -2.981e+01       9.896e-01           0.131           0.073           0.989       4.703e-01         -0.5136
 165       2.075e+01      -2.981e+01       9.326e-01           0.189           0.097           0.977       4.021e-01         -0.3543
 166       2.104e+01      -2.981e+01       8.703e-01           0.240           0.117           0.964       3.094e-01         -0.1808
 167       2.124e+01      -2.981e+01       8.169e-01           0.280           0.132           0.951       1.956e-01         -0.0561
 168       2.134e+01      -2.981e+01       7.795e-01           0.478           0.204           0.854       7.391e-02          0.2170
Strip 7
 169       2.085e+01      -2.851e+01       7.267e-01          -0.040          -0.045          -0.998       7.990e-02          0.1035
 170       2.074e+01      -2.851e+01       7.443e-01          -0.193          -0.102          -0.976       2.402e-01          0.3291
 171       2.052e+01      -2.851e+01       7.662e-01          -0.040          -0.044          -0.998       3.765e-01          0.4164
 172       2.021e+01      -2.851e+01       7.497e-01           0.123           0.022          -0.992       4.998e-01          0.3866
 173       1.983e+01      -2.851e+01       6.829e-01           0.210           0.059          -0.976       6.014e-01          0.2920
 174       1.939e+01      -2.851e+01       5.946e-01           0.187           0.049          -0.981       6.559e-01          0.1755
 175       1.893e+01      -2.851e+01       5.307e-01           0.086           0.001          -0.996       6.649e-01          0.1426
 176       1.846e+01      -2.851e+01       5.078e-01           0.011          -0.037          -0.999       6.432e-01          0.2137
 177       1.802e+01      -2.851e+01       5.148e-01          -0.045          -0.066          -0.997       5.878e-01          0.3300
 178       1.764e+01      -2.851e+01       5.416e-01          -0.098          -0.095          -0.991       4.996e-01          0.4748
 179       1.733e+01      -2.851e+01       5.833e-01          -0.178          -0.139          -0.974       3.853e-01          0.6478
 180       1.711e+01      -2.851e+01       6.419e-01          -0.369          -0.248          -0.896       2.610e-01          0.6421
 181       1.700e+01      -2.851e+01       7.262e-01          -0.771          -0.471          -0.429       1.828e-01         -0.9688
 182       1.700e+01      -2.851e+01       8.265e-01          -0.774          -0.449           0.446       1.820e-01         -4.4653
 183       1.711e+01      -2.850e+01       9.111e-01          -0.372          -0.201           0.906       2.601e-01         -4.7421
 184       1.733e+01      -2.850e+01       9.696e-01          -0.177          -0.086           0.981       3.841e-01         -2.5514
 185       1.764e+01      -2.850e+01       1.011e+00          -0.098          -0.041           0.994       4.986e-01         -1.6498
 186       1.802e+01      -2.850e+01       1.038e+00          -0.044          -0.011           0.999       5.868e-01         -1.2320
 187       1.846e+01      -2.850e+01       1.047e+00          -0.002           0.011           1.000       6.425e-01         -0.9772
 188       1.893e+01      -2.850e+01       1.040e+00           0.035           0.029           0.999       6.622e-01         -0.8047
 189       1.939e+01      -2.850e+01       1.014e+00           0.078           0.049           0.996       6.448e-01         -0.6690
 190       1.983e+01      -2.850e+01       9.682e-01           0.131           0.073           0.989       5.921e-01         -0.5262
 191       2.021e+01      -2.850e+01       9.067e-01           0.189           0.097           0.977       5.062e-01         -0.3625
 192       2.052e+01      -2.851e+01       8.395e-01           0.240           0.117           0.964       3.895e-01         -0.1852
 193       2.074e+01      -2.851e+01       7.817e-01           0.279           0.132           0.951       2.463e-01         -0.0573
 194       2.085e+01      -2.851e+01       7.414e-01           0.478           0.204           0.854       9.307e-02          0.2154
Strip 8
 195       2.029e+01      -2.701e+01       6.816e-01          -0.040          -0.045          -0.998       9.843e-02          0.1066
 196       2.017e+01      -2.701e+01       7.007e-01          -0.193          -0.102          -0.976       2.959e-01          0.3340
 197       1.993e+01      -2.701e+01       7.245e-01          -0.040          -0.044          -0.998       4.638e-01          0.4225
 198       1.959e+01      -2.701e+01       7.065e-01           0.123           0.022          -0.992       6.155e-01          0.3934
 199       1.918e+01      -2.701e+01       6.341e-01           0.210           0.059          -0.976       7.407e-01          0.2991
 200       1.870e+01      -2.701e+01       5.382e-01           0.187           0.049          -0.981       8.078e-01          0.1824
 201       1.820e+01      -2.701e+01       4.689e-01           0.086           0.001          -0.996       8.189e-01          0.1488
 202       1.769e+01      -2.701e+01       4.441e-01           0.011          -0.037          -0.999       7.923e-01          0.2189
 203       1.722e+01      -2.701e+01       4.517e-01          -0.045          -0.066          -0.997       7.240e-01          0.3339
 204       1.680e+01      -2.701e+01       4.808e-01          -0.098          -0.095          -0.991       6.155e-01          0.4771
 205       1.647e+01      -2.701e+01       5.260e-01          -0.178          -0.139          -0.974       4.747e-01          0.6491
 206       1.623e+01      -2.701e+01       5.895e-01          -0.369          -0.248          -0.896       3.216e-01          0.6478
 207       1.611e+01      -2.701e+01       6.811e-01          -0.771          -0.471          -0.429       2.253e-01         -0.9435
 208       1.611e+01      -2.701e+01       7.899e-01          -0.775          -0.449           0.445       2.241e-01         -4.4314
 209       1.623e+01      -2.700e+01       8.817e-01          -0.372          -0.201           0.906       3.202e-01         -4.7213
 210       1.647e+01      -2.700e+01       9.453e-01          -0.177          -0.086           0.981       4.730e-01         -2.5444
 211       1.680e+01      -2.700e+01       9.903e-01          -0.098          -0.041           0.994       6.141e-01         -1.6490
 212       1.722e+01      -2.700e+01       1.019e+00          -0.044          -0.011           0.999       7.228e-01         -1.2344
 213       1.769e+01      -2.700e+01       1.030e+00          -0.002           0.011           1.000       7.915e-01         -0.9816
 214       1.820e+01      -2.700e+01       1.021e+00           0.035           0.029           0.999       8.158e-01         -0.8101
 215       1.870e+01      -2.700e+01       9.930e-01           0.078           0.049           0.996       7.944e-01         -0.6745
 216       1.918e+01      -2.700e+01       9.437e-01           0.131           0.073           0.989       7.294e-01         -0.5306
 217       1.959e+01      -2.700e+01       8.770e-01           0.189           0.097           0.977       6.236e-01         -0.3654
 218       1.993e+01      -2.701e+01       8.040e-01           0.240           0.117           0.964       4.799e-01         -0.1869
 219       2.017e+01      -2.701e+01       7.413e-01           0.279           0.132           0.951       3.035e-01         -0.0576
 220       2.029e+01      -2.701e+01       6.976e-01           0.478           0.204           0.854       1.147e-01          0.2143
Strip 9
 221       1.966e+01      -2.532e+01       6.310e-01          -0.040          -0.045          -0.998       1.191e-01          0.1081
 222       1.952e+01      -2.532e+01       6.518e-01          -0.193          -0.102          -0.976       3.582e-01          0.3366
 223       1.927e+01      -2.532e+01       6.776e-01          -0.040          -0.044          -0.998       5.614e-01          0.4257
 224       1.890e+01      -2.532e+01       6.581e-01           0.123           0.022          -0.992       7.449e-01          0.3968
 225       1.845e+01      -2.532e+01       5.793e-01           0.210           0.059          -0.976       8.963e-01          0.3022
 226       1.793e+01      -2.533e+01       4.750e-01           0.187           0.049          -0.981       9.775e-01          0.1843
 227       1.738e+01      -2.533e+01       3.995e-01           0.086           0.001          -0.996       9.910e-01          0.1493
 228       1.683e+01      -2.533e+01       3.725e-01           0.011          -0.037          -0.999       9.589e-01          0.2182
 229       1.632e+01      -2.533e+01       3.808e-01          -0.045          -0.066          -0.997       8.763e-01          0.3319
 230       1.586e+01      -2.533e+01       4.124e-01          -0.098          -0.095          -0.991       7.450e-01          0.4740
 231       1.550e+01      -2.533e+01       4.616e-01          -0.178          -0.139          -0.974       5.746e-01          0.6464
 232       1.524e+01      -2.532e+01       5.308e-01          -0.369          -0.248          -0.896       3.893e-01          0.6576
 233       1.511e+01      -2.532e+01       6.304e-01          -0.770          -0.470          -0.430       2.727e-01         -0.8875
 234       1.511e+01      -2.532e+01       7.488e-01          -0.775          -0.449           0.445       2.711e-01         -4.3410
 235       1.524e+01      -2.532e+01       8.487e-01          -0.373          -0.201           0.906       3.874e-01         -4.6555
 236       1.550e+01      -2.532e+01       9.179e-01          -0.177          -0.086           0.981       5.723e-01         -2.5153
 237       1.586e+01      -2.532e+01       9.668e-01          -0.098          -0.041           0.994       7.431e-01         -1.6336
 238       1.632e+01      -2.532e+01       9.982e-01          -0.044          -0.011           0.999       8.747e-01         -1.2256
 239       1.683e+01      -2.532e+01       1.010e+00          -0.002           0.011           1.000       9.579e-01         -0.9767
 240       1.738e+01      -2.532e+01       1.001e+00           0.035           0.029           0.999       9.873e-01         -0.8076
 241       1.793e+01      -2.532e+01       9.698e-01           0.078           0.049           0.996       9.615e-01         -0.6733
 242       1.845e+01      -2.532e+01       9.162e-01           0.131           0.073           0.989       8.828e-01         -0.5299
 243       1.890e+01      -2.532e+01       8.435e-01           0.189           0.097           0.977       7.549e-01         -0.3650
 244       1.927e+01      -2.532e+01       7.641e-01           0.240           0.117           0.964       5.809e-01         -0.1867
 245       1.952e+01      -2.532e+01       6.959e-01           0.279           0.132           0.951       3.673e-01         -0.0573
 246       1.966e+01      -2.532e+01       6.483e-01           0.478           0.204           0.854       1.388e-01          0.2136
Strip 10
 247       1.896e+01      -2.347e+01       5.752e-01          -0.040          -0.045          -0.998       1.420e-01          0.1087
 248       1.882e+01      -2.347e+01       5.978e-01          -0.193          -0.102          -0.976       4.269e-01          0.3379
 249       1.854e+01      -2.346e+01       6.259e-01          -0.040          -0.044          -0.998       6.690e-01          0.4274
 250       1.814e+01      -2.347e+01       6.047e-01           0.123           0.022          -0.992       8.876e-01          0.3984
 251       1.764e+01      -2.347e+01       5.188e-01           0.210           0.059          -0.976       1.068e+00          0.3029
 252       1.708e+01      -2.347e+01       4.052e-01           0.187           0.049          -0.981       1.165e+00          0.1832
 253       1.648e+01      -2.347e+01       3.230e-01           0.086           0.001          -0.996       1.181e+00          0.1463
 254       1.589e+01      -2.347e+01       2.936e-01           0.011          -0.037          -0.999       1.143e+00          0.2137
 255       1.532e+01      -2.347e+01       3.026e-01          -0.045          -0.066          -0.997       1.044e+00          0.3261
 256       1.483e+01      -2.347e+01       3.371e-01          -0.098          -0.095          -0.991       8.880e-01          0.4671
 257       1.443e+01      -2.347e+01       3.907e-01          -0.178          -0.139          -0.974       6.849e-01          0.6406
 258       1.415e+01      -2.347e+01       4.660e-01          -0.369          -0.248          -0.896       4.642e-01          0.6698
 259       1.401e+01      -2.347e+01       5.746e-01          -0.770          -0.470          -0.431       3.252e-01         -0.8101
 260       1.401e+01      -2.346e+01       7.035e-01          -0.775          -0.449           0.444       3.230e-01         -4.2099
 261       1.415e+01      -2.346e+01       8.123e-01          -0.373          -0.201           0.906       4.615e-01         -4.5572
 262       1.443e+01      -2.346e+01       8.877e-01          -0.177          -0.086           0.981       6.819e-01         -2.4704
 263       1.483e+01      -2.346e+01       9.410e-01          -0.098          -0.041           0.994       8.855e-01         -1.6082
 264       1.532e+01      -2.346e+01       9.752e-01          -0.044          -0.011           0.999       1.042e+00         -1.2093
 265       1.589e+01      -2.346e+01       9.877e-01          -0.002           0.011           1.000       1.142e+00         -0.9657
 266       1.648e+01      -2.346e+01       9.778e-01           0.035           0.029           0.999       1.177e+00         -0.8000
 267       1.708e+01      -2.346e+01       9.443e-01           0.078           0.049           0.996       1.146e+00         -0.6680
 268       1.764e+01      -2.346e+01       8.859e-01           0.131           0.073           0.989       1.052e+00         -0.5262
 269       1.814e+01      -2.346e+01       8.067e-01           0.189           0.097           0.977       8.998e-01         -0.3626
 270       1.854e+01      -2.346e+01       7.202e-01           0.240           0.117           0.964       6.924e-01         -0.1853
 271       1.882e+01      -2.346e+01       6.459e-01           0.279           0.132           0.951       4.379e-01         -0.0567
 272       1.896e+01      -2.347e+01       5.941e-01           0.478           0.204           0.854       1.655e-01          0.2131
Strip 11
 273       1.820e+01      -2.145e+01       5.145e-01          -0.040          -0.045          -0.998       1.669e-01          0.1086
 274       1.805e+01      -2.145e+01       5.392e-01          -0.193          -0.102          -0.976       5.018e-01          0.3385
 275       1.774e+01      -2.145e+01       5.698e-01          -0.040          -0.044          -0.998       7.863e-01          0.4282
 276       1.731e+01      -2.145e+01       5.467e-01           0.123           0.022          -0.992       1.043e+00          0.3989
 277       1.677e+01      -2.145e+01       4.532e-01           0.210           0.059          -0.976       1.255e+00          0.3023
 278       1.616e+01      -2.145e+01       3.294e-01           0.187           0.049          -0.981       1.369e+00          0.1803
 279       1.551e+01      -2.145e+01       2.399e-01           0.086           0.001          -0.996       1.388e+00          0.1410
 280       1.485e+01      -2.145e+01       2.078e-01           0.011          -0.037          -0.999       1.343e+00          0.2066
 281       1.424e+01      -2.145e+01       2.177e-01          -0.045          -0.066          -0.997       1.228e+00          0.3175
 282       1.370e+01      -2.145e+01       2.552e-01          -0.098          -0.095          -0.991       1.044e+00          0.4574
 283       1.327e+01      -2.145e+01       3.136e-01          -0.177          -0.139          -0.974       8.051e-01          0.6323
 284       1.296e+01      -2.145e+01       3.956e-01          -0.368          -0.248          -0.896       5.457e-01          0.6832
 285       1.281e+01      -2.145e+01       5.139e-01          -0.770          -0.470          -0.432       3.823e-01         -0.7175
 286       1.281e+01      -2.145e+01       6.543e-01          -0.776          -0.450           0.443       3.795e-01         -4.0483
 287       1.296e+01      -2.145e+01       7.728e-01          -0.373          -0.201           0.906       5.422e-01         -4.4340
 288       1.327e+01      -2.144e+01       8.549e-01          -0.177          -0.086           0.981       8.013e-01         -2.4133
 289       1.370e+01      -2.144e+01       9.130e-01          -0.098          -0.041           0.994       1.041e+00         -1.5754
 290       1.424e+01      -2.144e+01       9.502e-01          -0.044          -0.011           0.999       1.225e+00         -1.1874
 291       1.485e+01      -2.144e+01       9.639e-01          -0.002           0.011           1.000       1.342e+00         -0.9503
 292       1.551e+01      -2.144e+01       9.530e-01           0.035           0.029           0.999       1.383e+00         -0.7889
 293       1.616e+01      -2.144e+01       9.165e-01           0.078           0.049           0.996       1.347e+00         -0.6598
 294       1.677e+01      -2.144e+01       8.529e-01           0.131           0.073           0.989       1.237e+00         -0.5204
 295       1.731e+01      -2.145e+01       7.667e-01           0.189           0.097           0.977       1.058e+00         -0.3587
 296       1.774e+01      -2.145e+01       6.725e-01           0.240           0.117           0.964       8.139e-01         -0.1831
 297       1.805e+01      -2.145e+01       5.916e-01           0.279           0.132           0.951       5.147e-01         -0.0558
 298       1.820e+01      -2.145e+01       5.351e-01           0.478           0.204           0.854       1.946e-01          0.2124
Strip 12
 299       1.739e+01      -1.928e+01       4.495e-01          -0.040          -0.045          -0.998       1.936e-01          0.1083
 300       1.722e+01      -1.928e+01       4.763e-01          -0.193          -0.102          -0.976       5.822e-01          0.3388
 301       1.689e+01      -1.928e+01       5.096e-01          -0.040          -0.044          -0.998       9.122e-01          0.4286
 302       1.642e+01      -1.928e+01       4.845e-01           0.123           0.022          -0.992       1.210e+00          0.3989
 303       1.583e+01      -1.928e+01       3.828e-01           0.210           0.059          -0.976       1.456e+00          0.3008
 304       1.516e+01      -1.928e+01       2.481e-01           0.187           0.049          -0.981       1.588e+00          0.1761
 305       1.446e+01      -1.929e+01       1.507e-01           0.086           0.001          -0.996       1.610e+00          0.1338
 306       1.375e+01      -1.929e+01       1.159e-01           0.011          -0.037          -0.999       1.558e+00          0.1974
 307       1.308e+01      -1.929e+01       1.266e-01          -0.045          -0.066          -0.997       1.424e+00          0.3066
 308       1.250e+01      -1.929e+01       1.674e-01          -0.097          -0.095          -0.991       1.211e+00          0.4453
 309       1.202e+01      -1.928e+01       2.309e-01          -0.177          -0.139          -0.974       9.341e-01          0.6215
 310       1.169e+01      -1.928e+01       3.202e-01          -0.368          -0.248          -0.896       6.333e-01          0.6965
 311       1.152e+01      -1.928e+01       4.487e-01          -0.770          -0.470          -0.432       4.436e-01         -0.6137
 312       1.152e+01      -1.928e+01       6.015e-01          -0.776          -0.450           0.443       4.401e-01         -3.8622
 313       1.169e+01      -1.928e+01       7.304e-01          -0.373          -0.201           0.906       6.288e-01         -4.2903
 314       1.202e+01      -1.928e+01       8.197e-01          -0.177          -0.086           0.980       9.294e-01         -2.3464
 315       1.250e+01      -1.928e+01       8.829e-01          -0.098          -0.041           0.994       1.207e+00         -1.5365
 316       1.308e+01      -1.928e+01       9.234e-01          -0.044          -0.011           0.999       1.421e+00         -1.1611
 317       1.375e+01      -1.928e+01       9.382e-01          -0.002           0.011           1.000       1.556e+00         -0.9316
 318       1.446e+01      -1.928e+01       9.264e-01           0.035           0.029           0.999       1.604e+00         -0.7751
 319       1.516e+01      -1.928e+01       8.867e-01           0.078           0.049           0.996       1.563e+00         -0.6497
 320       1.583e+01      -1.928e+01       8.176e-01           0.131           0.073           0.989       1.435e+00         -0.5130
 321       1.642e+01      -1.928e+01       7.238e-01           0.189           0.097           0.977       1.227e+00         -0.3538
 322       1.689e+01      -1.928e+01       6.213e-01           0.240           0.117           0.964       9.443e-01         -0.1804
 323       1.722e+01      -1.928e+01       5.333e-01           0.279           0.132           0.951       5.972e-01         -0.0547
 324       1.739e+01      -1.928e+01       4.719e-01           0.478           0.204           0.855       2.258e-01          0.2119
Strip 13
 325       1.653e+01      -1.699e+01       3.804e-01          -0.040          -0.045          -0.998       2.218e-01          0.1077
 326       1.634e+01      -1.699e+01       4.096e-01          -0.193          -0.102          -0.976       6.672e-01          0.3388
 327       1.598e+01      -1.699e+01       4.458e-01          -0.040          -0.044          -0.998       1.045e+00          0.4287
 328       1.547e+01      -1.699e+01       4.185e-01           0.123           0.022          -0.992       1.386e+00          0.3985
 329       1.483e+01      -1.699e+01       3.080e-01           0.210           0.059          -0.976       1.668e+00          0.2987
 330       1.411e+01      -1.699e+01       1.619e-01           0.187           0.049          -0.981       1.819e+00          0.1708
 331       1.334e+01      -1.699e+01       5.613e-02           0.086           0.001          -0.996       1.845e+00          0.1252
 332       1.258e+01      -1.699e+01       1.834e-02           0.011          -0.037          -0.999       1.785e+00          0.1864
 333       1.185e+01      -1.699e+01       2.995e-02          -0.045          -0.066          -0.997       1.632e+00          0.2937
 334       1.122e+01      -1.699e+01       7.425e-02          -0.097          -0.095          -0.991       1.388e+00          0.4309
 335       1.070e+01      -1.699e+01       1.432e-01          -0.177          -0.139          -0.974       1.071e+00          0.6083
 336       1.034e+01      -1.699e+01       2.401e-01          -0.368          -0.248          -0.896       7.258e-01          0.7090
 337       1.016e+01      -1.699e+01       3.797e-01          -0.769          -0.470          -0.433       5.084e-01         -0.5008
 338       1.016e+01      -1.699e+01       5.455e-01          -0.776          -0.450           0.442       5.041e-01         -3.6543
 339       1.034e+01      -1.699e+01       6.855e-01          -0.373          -0.201           0.906       7.202e-01         -4.1282
 340       1.070e+01      -1.698e+01       7.824e-01          -0.177          -0.086           0.980       1.065e+00         -2.2706
 341       1.122e+01      -1.698e+01       8.510e-01          -0.098          -0.041           0.994       1.383e+00         -1.4920
 342       1.185e+01      -1.698e+01       8.949e-01          -0.044          -0.011           0.999       1.628e+00         -1.1311
 343       1.258e+01      -1.698e+01       9.111e-01          -0.002           0.011           1.000       1.783e+00         -0.9100
 344       1.334e+01      -1.698e+01       8.982e-01           0.035           0.029           0.999       1.838e+00         -0.7592
 345       1.411e+01      -1.698e+01       8.551e-01           0.078           0.049           0.996       1.790e+00         -0.6378
 346       1.483e+01      -1.698e+01       7.801e-01           0.131           0.073           0.989       1.644e+00         -0.5044
 347       1.547e+01      -1.699e+01       6.782e-01           0.189           0.097           0.977       1.406e+00         -0.3481
 348       1.598e+01      -1.699e+01       5.670e-01           0.240           0.117           0.964       1.082e+00         -0.1772
 349       1.634e+01      -1.699e+01       4.715e-01           0.279           0.132           0.951       6.844e-01         -0.0536
 350       1.653e+01      -1.699e+01       4.048e-01           0.477           0.204           0.855       2.588e-01          0.2112
Strip 14
 351       1.562e+01      -1.457e+01       3.080e-01          -0.040          -0.045          -0.998       2.512e-01          0.1068
 352       1.542e+01      -1.457e+01       3.395e-01          -0.193          -0.102          -0.976       7.555e-01          0.3387
 353       1.503e+01      -1.457e+01       3.787e-01          -0.040          -0.044          -0.998       1.184e+00          0.4287
 354       1.448e+01      -1.457e+01       3.491e-01           0.123           0.022          -0.992       1.570e+00          0.3978
 355       1.379e+01      -1.458e+01       2.295e-01           0.210           0.059          -0.976       1.888e+00          0.2961
 356       1.301e+01      -1.458e+01       7.127e-02           0.187           0.049          -0.981       2.059e+00          0.1645
 357       1.218e+01      -1.458e+01      -4.322e-02           0.086           0.001          -0.996       2.089e+00          0.1151
 358       1.134e+01      -1.458e+01      -8.414e-02           0.011          -0.037          -0.999       2.021e+00          0.1736
 359       1.056e+01      -1.458e+01      -7.157e-02          -0.045          -0.066          -0.997       1.848e+00          0.2788
 360       9.872e+00      -1.458e+01      -2.360e-02          -0.097          -0.095          -0.991       1.571e+00          0.4141
 361       9.317e+00      -1.458e+01       5.103e-02          -0.177          -0.139          -0.974       1.212e+00          0.5923
 362       8.928e+00      -1.458e+01       1.560e-01          -0.368          -0.247          -0.896       8.221e-01          0.7198
 363       8.728e+00      -1.457e+01       3.071e-01          -0.769          -0.470          -0.433       5.759e-01         -0.3799
 364       8.728e+00      -1.457e+01       4.867e-01          -0.776          -0.450           0.442       5.707e-01         -3.4251
 365       8.928e+00      -1.457e+01       6.382e-01          -0.373          -0.201           0.906       8.154e-01         -3.9472
 366       9.317e+00      -1.457e+01       7.432e-01          -0.177          -0.086           0.980       1.206e+00         -2.1855
 367       9.872e+00      -1.457e+01       8.174e-01          -0.098          -0.041           0.994       1.566e+00         -1.4421
 368       1.056e+01      -1.457e+01       8.651e-01          -0.044          -0.011           0.999       1.844e+00         -1.0974
 369       1.134e+01      -1.457e+01       8.825e-01          -0.002           0.011           1.000       2.019e+00         -0.8858
 370       1.218e+01      -1.457e+01       8.686e-01           0.035           0.029           0.999       2.082e+00         -0.7413
 371       1.301e+01      -1.457e+01       8.220e-01           0.078           0.049           0.996       2.028e+00         -0.6244
 372       1.379e+01      -1.457e+01       7.407e-01           0.131           0.073           0.989       1.862e+00         -0.4947
 373       1.448e+01      -1.457e+01       6.304e-01           0.189           0.097           0.977       1.592e+00         -0.3417
 374       1.503e+01      -1.457e+01       5.100e-01           0.240           0.117           0.964       1.225e+00         -0.1737
 375       1.542e+01      -1.457e+01       4.065e-01           0.279           0.132           0.951       7.751e-01         -0.0524
 376       1.562e+01      -1.457e+01       3.343e-01           0.477           0.204           0.855       2.931e-01          0.2101
Strip 15
 377       1.468e+01      -1.206e+01       2.325e-01          -0.040          -0.045          -0.998       2.812e-01          0.1056
 378       1.446e+01      -1.206e+01       2.665e-01          -0.193          -0.102          -0.976       8.459e-01          0.3385
 379       1.404e+01      -1.206e+01       3.088e-01          -0.040          -0.044          -0.998       1.325e+00          0.4287
 380       1.345e+01      -1.206e+01       2.769e-01           0.123           0.022          -0.992       1.757e+00          0.3971
 381       1.270e+01      -1.206e+01       1.478e-01           0.210           0.059          -0.976       2.114e+00          0.2932
 382       1.186e+01      -1.206e+01      -2.306e-02           0.187           0.049          -0.981       2.305e+00          0.1574
 383       1.096e+01      -1.206e+01      -1.467e-01           0.086           0.001          -0.996       2.338e+00          0.1036
 384       1.006e+01      -1.206e+01      -1.909e-01           0.011          -0.037          -0.999       2.263e+00          0.1590
 385       9.216e+00      -1.206e+01      -1.773e-01          -0.045          -0.066          -0.997       2.069e+00          0.2615
 386       8.472e+00      -1.206e+01      -1.255e-01          -0.097          -0.095          -0.991       1.759e+00          0.3944
 387       7.873e+00      -1.206e+01      -4.492e-02          -0.177          -0.139          -0.974       1.357e+00          0.5727
 388       7.453e+00      -1.206e+01       6.838e-02          -0.368          -0.247          -0.896       9.205e-01          0.7279
 389       7.236e+00      -1.206e+01       2.316e-01          -0.769          -0.470          -0.434       6.449e-01         -0.2507
 390       7.236e+00      -1.206e+01       4.255e-01          -0.776          -0.450           0.441       6.388e-01         -3.1720
 391       7.453e+00      -1.206e+01       5.890e-01          -0.373          -0.202           0.906       9.126e-01         -3.7449
 392       7.873e+00      -1.206e+01       7.023e-01          -0.177          -0.086           0.980       1.349e+00         -2.0900
 393       8.472e+00      -1.206e+01       7.825e-01          -0.098          -0.041           0.994       1.753e+00         -1.3863
 394       9.216e+00      -1.206e+01       8.339e-01          -0.044          -0.011           0.999       2.064e+00         -1.0597
 395       1.006e+01      -1.206e+01       8.528e-01          -0.002           0.011           1.000       2.261e+00         -0.8589
 396       1.096e+01      -1.206e+01       8.378e-01           0.035           0.029           0.999       2.330e+00         -0.7216
 397       1.186e+01      -1.206e+01       7.874e-01           0.078           0.049           0.996       2.270e+00         -0.6099
 398       1.270e+01      -1.206e+01       6.996e-01           0.131           0.073           0.989       2.085e+00         -0.4843
 399       1.345e+01      -1.206e+01       5.806e-01           0.188           0.097           0.977       1.783e+00         -0.3349
 400       1.404e+01      -1.206e+01       4.506e-01           0.240           0.117           0.964       1.372e+00         -0.1701
 401       1.446e+01      -1.206e+01       3.389e-01           0.279           0.132           0.951       8.678e-01         -0.0514
 402       1.468e+01      -1.206e+01       2.609e-01           0.477           0.204           0.855       3.281e-01          0.2087
Strip 16
 403       1.371e+01      -9.469e+00       1.545e-01          -0.040          -0.045          -0.998       3.113e-01          0.1041
 404       1.347e+01      -9.469e+00       1.912e-01          -0.193          -0.102          -0.976       9.366e-01          0.3382
 405       1.302e+01      -9.469e+00       2.367e-01          -0.040          -0.044          -0.998       1.467e+00          0.4287
 406       1.238e+01      -9.469e+00       2.023e-01           0.123           0.022          -0.992       1.945e+00          0.3964
 407       1.158e+01      -9.469e+00       6.340e-02           0.210           0.059          -0.976       2.340e+00          0.2899
 408       1.067e+01      -9.470e+00      -1.205e-01           0.187           0.049          -0.981       2.552e+00          0.1492
 409       9.702e+00      -9.470e+00      -2.535e-01           0.086           0.001          -0.996       2.588e+00          0.0904
 410       8.736e+00      -9.470e+00      -3.011e-01           0.011          -0.037          -0.999       2.505e+00          0.1422
 411       7.827e+00      -9.470e+00      -2.865e-01          -0.045          -0.066          -0.997       2.290e+00          0.2417
 412       7.026e+00      -9.470e+00      -2.307e-01          -0.097          -0.095          -0.991       1.948e+00          0.3713
 413       6.381e+00      -9.470e+00      -1.440e-01          -0.177          -0.139          -0.974       1.503e+00          0.5486
 414       5.929e+00      -9.469e+00      -2.209e-02          -0.368          -0.247          -0.896       1.019e+00          0.7319
 415       5.696e+00      -9.469e+00       1.535e-01          -0.769          -0.470          -0.434       7.141e-01         -0.1117
 416       5.696e+00      -9.468e+00       3.622e-01          -0.777          -0.450           0.441       7.071e-01         -2.8879
 417       5.929e+00      -9.468e+00       5.382e-01          -0.373          -0.202           0.906       1.010e+00         -3.5141
 418       6.381e+00      -9.468e+00       6.602e-01          -0.177          -0.086           0.980       1.494e+00         -1.9810
 419       7.026e+00      -9.467e+00       7.465e-01          -0.098          -0.041           0.994       1.941e+00         -1.3227
 420       7.827e+00      -9.467e+00       8.018e-01          -0.044          -0.011           0.999       2.285e+00         -1.0174
 421       8.736e+00      -9.467e+00       8.221e-01          -0.002           0.011           1.000       2.503e+00         -0.8294
 422       9.702e+00      -9.467e+00       8.059e-01           0.035           0.029           0.999       2.580e+00         -0.7004
 423       1.067e+01      -9.467e+00       7.517e-01           0.078           0.049           0.996       2.513e+00         -0.5947
 424       1.158e+01      -9.468e+00       6.573e-01           0.131           0.073           0.989       2.308e+00         -0.4738
 425       1.238e+01      -9.468e+00       5.292e-01           0.188           0.097           0.977       1.974e+00         -0.3282
 426       1.302e+01      -9.468e+00       3.892e-01           0.240           0.117           0.964       1.519e+00         -0.1667
 427       1.347e+01      -9.469e+00       2.690e-01           0.279           0.132           0.951       9.609e-01         -0.0508
 428       1.371e+01      -9.469e+00       1.851e-01           0.477           0.204           0.855       3.634e-01          0.2066
Strip 17
 429       1.271e+01      -6.810e+00       7.459e-02          -0.040          -0.045          -0.998       3.410e-01          0.1019
 430       1.246e+01      -6.810e+00       1.139e-01          -0.193          -0.102          -0.976       1.026e+00          0.3378
 431       1.198e+01      -6.810e+00       1.627e-01          -0.040          -0.044          -0.998       1.607e+00          0.4288
 432       1.128e+01      -6.810e+00       1.259e-01           0.123           0.022          -0.992       2.131e+00          0.3957
 433       1.043e+01      -6.810e+00      -2.312e-02           0.210           0.059          -0.976       2.562e+00          0.2863
 434       9.450e+00      -6.811e+00      -2.204e-01           0.187           0.049          -0.981       2.795e+00          0.1400
 435       8.414e+00      -6.811e+00      -3.630e-01           0.086           0.001          -0.996       2.835e+00          0.0754
 436       7.378e+00      -6.811e+00      -4.140e-01           0.011          -0.037          -0.999       2.744e+00          0.1232
 437       6.403e+00      -6.811e+00      -3.984e-01          -0.045          -0.066          -0.997       2.509e+00          0.2188
 438       5.544e+00      -6.811e+00      -3.386e-01          -0.097          -0.095          -0.991       2.133e+00          0.3442
 439       4.852e+00      -6.811e+00      -2.456e-01          -0.177          -0.139          -0.974       1.646e+00          0.5186
 440       4.367e+00      -6.810e+00      -1.148e-01          -0.368          -0.247          -0.896       1.117e+00          0.7299
 441       4.118e+00      -6.810e+00       7.355e-02          -0.769          -0.469          -0.434       7.823e-01          0.0417
 442       4.118e+00      -6.810e+00       2.974e-01          -0.777          -0.450           0.440       7.743e-01         -2.5577
 443       4.367e+00      -6.809e+00       4.862e-01          -0.373          -0.202           0.905       1.106e+00         -3.2396
 444       4.852e+00      -6.809e+00       6.169e-01          -0.177          -0.086           0.980       1.636e+00         -1.8503
 445       5.544e+00      -6.809e+00       7.095e-01          -0.098          -0.041           0.994       2.125e+00         -1.2474
 446       6.403e+00      -6.809e+00       7.688e-01          -0.044          -0.011           0.999       2.503e+00         -0.9689
 447       7.378e+00      -6.809e+00       7.906e-01          -0.002           0.011           1.000       2.741e+00         -0.7973
 448       8.414e+00      -6.809e+00       7.733e-01           0.035           0.029           0.999       2.826e+00         -0.6791
 449       9.450e+00      -6.809e+00       7.151e-01           0.078           0.049           0.996       2.753e+00         -0.5807
 450       1.043e+01      -6.809e+00       6.138e-01           0.131           0.073           0.989       2.528e+00         -0.4649
 451       1.128e+01      -6.809e+00       4.764e-01           0.188           0.097           0.977       2.162e+00         -0.3231
 452       1.198e+01      -6.810e+00       3.263e-01           0.240           0.117           0.964       1.664e+00         -0.1648
 453       1.246e+01      -6.810e+00       1.974e-01           0.279           0.132           0.951       1.052e+00         -0.0515
 454       1.271e+01      -6.810e+00       1.074e-01           0.477           0.204           0.855       3.980e-01          0.2030
Strip 18
 455       1.170e+01      -4.105e+00      -6.715e-03          -0.040          -0.045          -0.998       3.695e-01          0.0990
 456       1.143e+01      -4.105e+00       3.532e-02          -0.193          -0.102          -0.976       1.112e+00          0.3374
 457       1.091e+01      -4.105e+00       8.749e-02          -0.040          -0.044          -0.998       1.741e+00          0.4291
 458       1.017e+01      -4.105e+00       4.810e-02           0.123           0.022          -0.992       2.309e+00          0.3949
 459       9.253e+00      -4.105e+00      -1.111e-01           0.210           0.059          -0.976       2.777e+00          0.2817
 460       8.210e+00      -4.105e+00      -3.220e-01           0.187           0.049          -0.981       3.028e+00          0.1289
 461       7.103e+00      -4.105e+00      -4.745e-01           0.086           0.001          -0.996       3.072e+00          0.0584
 462       5.996e+00      -4.105e+00      -5.290e-01           0.011          -0.037          -0.999       2.974e+00          0.1025
 463       4.954e+00      -4.105e+00      -5.122e-01          -0.045          -0.066          -0.997       2.718e+00          0.1942
 464       4.036e+00      -4.105e+00      -4.483e-01          -0.097          -0.095          -0.991       2.312e+00          0.3139
 465       3.296e+00      -4.105e+00      -3.489e-01          -0.177          -0.139          -0.974       1.784e+00          0.4823
 466       2.778e+00      -4.105e+00      -2.091e-01          -0.368          -0.247          -0.896       1.210e+00          0.7205
 467       2.511e+00      -4.105e+00      -7.826e-03          -0.769          -0.469          -0.435       8.478e-01          0.2227
 468       2.511e+00      -4.105e+00       2.314e-01          -0.777          -0.450           0.440       8.389e-01         -2.1431
 469       2.778e+00      -4.104e+00       4.332e-01          -0.374          -0.202           0.905       1.199e+00         -2.8799
 470       3.296e+00      -4.104e+00       5.730e-01          -0.177          -0.086           0.980       1.773e+00         -1.6761
 471       4.036e+00      -4.104e+00       6.719e-01          -0.098          -0.041           0.994       2.303e+00         -1.1491
 472       4.954e+00      -4.104e+00       7.353e-01          -0.044          -0.011           0.999       2.712e+00         -0.9095
 473       5.996e+00      -4.104e+00       7.586e-01          -0.002           0.011           1.000       2.971e+00         -0.7628
 474       7.103e+00      -4.104e+00       7.401e-01           0.035           0.029           0.999       3.063e+00         -0.6614
 475       8.210e+00      -4.104e+00       6.779e-01           0.078           0.049           0.996       2.983e+00         -0.5737
 476       9.253e+00      -4.104e+00       5.696e-01           0.131           0.073           0.989       2.740e+00         -0.4639
 477       1.017e+01      -4.104e+00       4.228e-01           0.188           0.097           0.977       2.343e+00         -0.3249
 478       1.091e+01      -4.104e+00       2.623e-01           0.240           0.117           0.964       1.803e+00         -0.1678
 479       1.143e+01      -4.105e+00       1.246e-01           0.279           0.132           0.951       1.141e+00         -0.0554
 480       1.170e+01      -4.105e+00       2.837e-02           0.477           0.204           0.855       4.314e-01          0.1975
Strip 19
 481       1.067e+01      -1.371e+00      -8.886e-02          -0.040          -0.045          -0.998       3.962e-01          0.0967
 482       1.039e+01      -1.371e+00      -4.409e-02          -0.193          -0.102          -0.976       1.192e+00          0.3399
 483       9.834e+00      -1.371e+00       1.147e-02          -0.040          -0.044          -0.998       1.867e+00          0.4296
 484       9.046e+00      -1.371e+00      -3.049e-02           0.123           0.022          -0.992       2.476e+00          0.3896
 485       8.069e+00      -1.371e+00      -2.001e-01           0.210           0.059          -0.976       2.977e+00          0.2664
 486       6.958e+00      -1.371e+00      -4.246e-01           0.187           0.049          -0.981       3.247e+00          0.1067
 487       5.779e+00      -1.372e+00      -5.870e-01           0.086           0.001          -0.996       3.294e+00          0.0395
 488       4.600e+00      -1.372e+00      -6.451e-01           0.011          -0.037          -0.999       3.189e+00          0.0916
 489       3.490e+00      -1.372e+00      -6.273e-01          -0.045          -0.066          -0.997       2.915e+00          0.1873
 490       2.512e+00      -1.372e+00      -5.592e-01          -0.097          -0.095          -0.991       2.479e+00          0.3022
 491       1.725e+00      -1.372e+00      -4.533e-01          -0.177          -0.139          -0.974       1.913e+00          0.4588
 492       1.173e+00      -1.371e+00      -3.045e-01          -0.368          -0.247          -0.896       1.298e+00          0.7042
 493       8.885e-01      -1.371e+00      -9.005e-02          -0.769          -0.469          -0.435       9.093e-01          0.4475
 494       8.885e-01      -1.371e+00       1.647e-01          -0.777          -0.451           0.440       8.995e-01         -1.5060
 495       1.173e+00      -1.371e+00       3.797e-01          -0.374          -0.202           0.905       1.285e+00         -2.2574
 496       1.725e+00      -1.371e+00       5.285e-01          -0.177          -0.086           0.980       1.901e+00         -1.3534
 497       2.512e+00      -1.371e+00       6.339e-01          -0.098          -0.041           0.994       2.470e+00         -0.9738
 498       3.490e+00      -1.371e+00       7.015e-01          -0.044          -0.011           0.999       2.908e+00         -0.8194
 499       4.600e+00      -1.371e+00       7.262e-01          -0.002           0.011           1.000       3.186e+00         -0.7280
 500       5.779e+00      -1.371e+00       7.065e-01           0.035           0.029           0.999       3.284e+00         -0.6598
 501       6.958e+00      -1.371e+00       6.403e-01           0.078           0.049           0.996       3.199e+00         -0.5953
 502       8.069e+00      -1.371e+00       5.250e-01           0.131           0.073           0.989       2.938e+00         -0.4967
 503       9.046e+00      -1.371e+00       3.686e-01           0.188           0.097           0.977       2.513e+00         -0.3565
 504       9.834e+00      -1.371e+00       1.977e-01           0.240           0.117           0.964       1.934e+00         -0.1916
 505       1.039e+01      -1.371e+00       5.095e-02           0.279           0.132           0.951       1.223e+00         -0.0708
 506       1.067e+01      -1.371e+00      -5.150e-02           0.477           0.204           0.855       4.626e-01          0.1832
Strip 20
 507       1.067e+01       1.371e+00      -8.886e-02          -0.040           0.045          -0.998       3.962e-01          0.0967
 508       1.039e+01       1.371e+00      -4.409e-02          -0.193           0.102          -0.976       1.192e+00          0.3399
 509       9.834e+00       1.371e+00       1.147e-02          -0.040           0.044          -0.998       1.867e+00          0.4296
 510       9.046e+00       1.371e+00      -3.049e-02           0.123          -0.022          -0.992       2.476e+00          0.3896
 511       8.069e+00       1.371e+00      -2.001e-01           0.210          -0.059          -0.976       2.977e+00          0.2664
 512       6.958e+00       1.371e+00      -4.246e-01           0.187          -0.049          -0.981       3.247e+00          0.1067
 513       5.779e+00       1.372e+00      -5.870e-01           0.086          -0.001          -0.996       3.294e+00          0.0395
 514       4.600e+00       1.372e+00      -6.451e-01           0.011           0.037          -0.999       3.189e+00          0.0916
 515       3.490e+00       1.372e+00      -6.273e-01          -0.045           0.066          -0.997       2.915e+00          0.1873
 516       2.512e+00       1.372e+00      -5.592e-01          -0.097           0.095          -0.991       2.479e+00          0.3022
 517       1.725e+00       1.372e+00      -4.533e-01          -0.177           0.139          -0.974       1.913e+00          0.4588
 518       1.173e+00       1.371e+00      -3.045e-01          -0.368           0.247          -0.896       1.298e+00          0.7042
 519       8.885e-01       1.371e+00      -9.005e-02          -0.769           0.469          -0.435       9.093e-01          0.4475
 520       8.885e-01       1.371e+00       1.647e-01          -0.777           0.451           0.440       8.995e-01         -1.5060
 521       1.173e+00       1.371e+00       3.797e-01          -0.374           0.202           0.905       1.285e+00         -2.2574
 522       1.725e+00       1.371e+00       5.285e-01          -0.177           0.086           0.980       1.901e+00         -1.3534
 523       2.512e+00       1.371e+00       6.339e-01          -0.098           0.041           0.994       2.470e+00         -0.9738
 524       3.490e+00       1.371e+00       7.015e-01          -0.044           0.011           0.999       2.908e+00         -0.8194
 525       4.600e+00       1.371e+00       7.262e-01          -0.002          -0.011           1.000       3.186e+00         -0.7280
 526       5.779e+00       1.371e+00       7.065e-01           0.035          -0.029           0.999       3.284e+00         -0.6598
 527       6.958e+00       1.371e+00       6.403e-01           0.078          -0.049           0.996       3.199e+00         -0.5953
 528       8.069e+00       1.371e+00       5.250e-01           0.131          -0.073           0.989       2.938e+00         -0.4967
 529       9.046e+00       1.371e+00       3.686e-01           0.188          -0.097           0.977       2.513e+00         -0.3565
 530       9.834e+00       1.371e+00       1.977e-01           0.240          -0.117           0.964       1.934e+00         -0.1916
 531       1.039e+01       1.371e+00       5.095e-02           0.279          -0.132           0.951       1.223e+00         -0.0708
 532       1.067e+01       1.371e+00      -5.150e-02           0.477          -0.204           0.855       4.626e-01          0.1832
Strip 21
 533       1.170e+01       4.105e+00      -6.715e-03          -0.040           0.045          -0.998       3.695e-01          0.0990
 534       1.143e+01       4.105e+00       3.532e-02          -0.193           0.102          -0.976       1.112e+00          0.3374
 535       1.091e+01       4.105e+00       8.749e-02          -0.040           0.044          -0.998       1.741e+00          0.4291
 536       1.017e+01       4.105e+00       4.810e-02           0.123          -0.022          -0.992       2.309e+00          0.3949
 537       9.253e+00       4.105e+00      -1.111e-01           0.210          -0.059          -0.976       2.777e+00          0.2817
 538       8.210e+00       4.105e+00      -3.220e-01           0.187          -0.049          -0.981       3.028e+00          0.1289
 539       7.103e+00       4.105e+00      -4.745e-01           0.086          -0.001          -0.996       3.072e+00          0.0584
 540       5.996e+00       4.105e+00      -5.290e-01           0.011           0.037          -0.999       2.974e+00          0.1025
 541       4.954e+00       4.105e+00      -5.122e-01          -0.045           0.066          -0.997       2.718e+00          0.1942
 542       4.036e+00       4.105e+00      -4.483e-01          -0.097           0.095          -0.991       2.312e+00          0.3139
 543       3.296e+00       4.105e+00      -3.489e-01          -0.177           0.139          -0.974       1.784e+00          0.4823
 544       2.778e+00       4.105e+00      -2.091e-01          -0.368           0.247          -0.896       1.210e+00          0.7205
 545       2.511e+00       4.105e+00      -7.826e-03          -0.769           0.469          -0.435       8.478e-01          0.2227
 546       2.511e+00       4.105e+00       2.314e-01          -0.777           0.450           0.440       8.389e-01         -2.1431
 547       2.778e+00       4.104e+00       4.332e-01          -0.374           0.202           0.905       1.199e+00         -2.8799
 548       3.296e+00       4.104e+00       5.730e-01          -0.177           0.086           0.980       1.773e+00         -1.6761
 549       4.036e+00       4.104e+00       6.719e-01          -0.098           0.041           0.994       2.303e+00         -1.1491
 550       4.954e+00       4.104e+00       7.353e-01          -0.044           0.011           0.999       2.712e+00         -0.9095
 551       5.996e+00       4.104e+00       7.586e-01          -0.002          -0.011           1.000       2.971e+00         -0.7628
 552       7.103e+00       4.104e+00       7.401e-01           0.035          -0.029           0.999       3.063e+00         -0.6614
 553       8.210e+00       4.104e+00       6.779e-01           0.078          -0.049           0.996       2.983e+00         -0.5737
 554       9.253e+00       4.104e+00       5.696e-01           0.131          -0.073           0.989       2.740e+00         -0.4639
 555       1.017e+01       4.104e+00       4.228e-01           0.188          -0.097           0.977       2.343e+00         -0.3249
 556       1.091e+01       4.104e+00       2.623e-01           0.240          -0.117           0.964       1.803e+00         -0.1678
 557       1.143e+01       4.105e+00       1.246e-01           0.279          -0.132           0.951       1.141e+00         -0.0554
 558       1.170e+01       4.105e+00       2.837e-02           0.477          -0.204           0.855       4.314e-01          0.1975
Strip 22
 559       1.271e+01       6.810e+00       7.459e-02          -0.040           0.045          -0.998       3.410e-01          0.1019
 560       1.246e+01       6.810e+00       1.139e-01          -0.193           0.102          -0.976       1.026e+00          0.3378
 561       1.198e+01       6.810e+00       1.627e-01          -0.040           0.044          -0.998       1.607e+00          0.4288
 562       1.128e+01       6.810e+00       1.259e-01           0.123          -0.022          -0.992       2.131e+00          0.3957
[...]
 853       1.872e+01       2.982e+01       5.698e-01          -0.045           0.066          -0.997       4.669e-01          0.3166
 854       1.837e+01       2.982e+01       5.946e-01          -0.098           0.095          -0.991       3.969e-01          0.4639
 855       1.808e+01       2.982e+01       6.331e-01          -0.178           0.139          -0.974       3.060e-01          0.6401
 856       1.788e+01       2.981e+01       6.874e-01          -0.369           0.248          -0.896       2.072e-01          0.6421
 857       1.777e+01       2.981e+01       7.655e-01          -0.772           0.471          -0.428       1.451e-01         -0.9504
 858       1.777e+01       2.981e+01       8.583e-01          -0.774           0.449           0.447       1.447e-01         -4.4202
 859       1.788e+01       2.981e+01       9.366e-01          -0.372           0.201           0.906       2.067e-01         -4.6999
 860       1.808e+01       2.981e+01       9.909e-01          -0.177           0.086           0.981       3.052e-01         -2.5263
 861       1.837e+01       2.981e+01       1.029e+00          -0.098           0.041           0.994       3.961e-01         -1.6292
 862       1.872e+01       2.981e+01       1.054e+00          -0.044           0.011           0.999       4.662e-01         -1.2125
 863       1.913e+01       2.981e+01       1.063e+00          -0.002          -0.011           1.000       5.105e-01         -0.9581
 864       1.956e+01       2.981e+01       1.056e+00           0.035          -0.029           0.999       5.261e-01         -0.7864
 865       1.999e+01       2.981e+01       1.032e+00           0.078          -0.049           0.996       5.122e-01         -0.6528
 866       2.039e+01       2.981e+01       9.896e-01           0.131          -0.073           0.989       4.703e-01         -0.5136
 867       2.075e+01       2.981e+01       9.326e-01           0.189          -0.097           0.977       4.021e-01         -0.3543
 868       2.104e+01       2.981e+01       8.703e-01           0.240          -0.117           0.964       3.094e-01         -0.1808
 869       2.124e+01       2.981e+01       8.169e-01           0.280          -0.132           0.951       1.956e-01         -0.0561
 870       2.134e+01       2.981e+01       7.795e-01           0.478          -0.204           0.854       7.391e-02          0.2170
Strip 34
 871       2.175e+01       3.092e+01       7.990e-01          -0.040           0.045          -0.998       4.899e-02          0.0847
 872       2.166e+01       3.091e+01       8.142e-01          -0.193           0.102          -0.976       1.472e-01          0.3008
 873       2.147e+01       3.091e+01       8.331e-01          -0.040           0.044          -0.998       2.308e-01          0.3815
 874       2.120e+01       3.091e+01       8.189e-01           0.123          -0.022          -0.992       3.065e-01          0.3476
 875       2.087e+01       3.092e+01       7.613e-01           0.210          -0.059          -0.976       3.689e-01          0.2495
 876       2.049e+01       3.092e+01       6.850e-01           0.186          -0.049          -0.981       4.023e-01          0.1295
 877       2.009e+01       3.092e+01       6.298e-01           0.086          -0.001          -0.996       4.077e-01          0.0943
 878       1.969e+01       3.092e+01       6.101e-01           0.011           0.037          -0.999       3.944e-01          0.1666
 879       1.931e+01       3.092e+01       6.161e-01          -0.045           0.066          -0.997       3.603e-01          0.2872
 880       1.898e+01       3.092e+01       6.393e-01          -0.098           0.095          -0.991       3.063e-01          0.4387
 881       1.871e+01       3.092e+01       6.752e-01          -0.178           0.139          -0.974       2.361e-01          0.6216
 882       1.853e+01       3.092e+01       7.258e-01          -0.369           0.248          -0.896       1.599e-01          0.6482
 883       1.843e+01       3.092e+01       7.986e-01          -0.772           0.471          -0.427       1.120e-01         -0.8731
 884       1.843e+01       3.091e+01       8.852e-01          -0.774           0.448           0.448       1.117e-01         -4.2670
 885       1.853e+01       3.091e+01       9.582e-01          -0.372           0.201           0.906       1.596e-01         -4.5702
 886       1.871e+01       3.091e+01       1.009e+00          -0.177           0.086           0.981       2.356e-01         -2.4552
 887       1.898e+01       3.091e+01       1.045e+00          -0.098           0.041           0.994       3.058e-01         -1.5764
 888       1.931e+01       3.091e+01       1.068e+00          -0.044           0.011           0.999       3.598e-01         -1.1664
 889       1.969e+01       3.091e+01       1.076e+00          -0.002          -0.011           1.000       3.940e-01         -0.9157
 890       2.009e+01       3.091e+01       1.069e+00           0.035          -0.029           0.999       4.060e-01         -0.7478
 891       2.049e+01       3.091e+01       1.047e+00           0.078          -0.049           0.996       3.953e-01         -0.6198
 892       2.087e+01       3.091e+01       1.008e+00           0.131          -0.073           0.989       3.629e-01         -0.4891
 893       2.120e+01       3.091e+01       9.544e-01           0.189          -0.097           0.977       3.103e-01         -0.3395
 894       2.147e+01       3.091e+01       8.964e-01           0.240          -0.117           0.964       2.387e-01         -0.1738
 895       2.166e+01       3.091e+01       8.465e-01           0.280          -0.132           0.951       1.509e-01         -0.0558
 896       2.175e+01       3.091e+01       8.117e-01           0.479          -0.205           0.854       5.703e-02          0.2181
Strip 35
 897       2.209e+01       3.181e+01       8.258e-01          -0.040           0.045          -0.998       3.620e-02          0.0560
 898       2.200e+01       3.181e+01       8.401e-01          -0.193           0.102          -0.976       1.088e-01          0.2600
 899       2.182e+01       3.180e+01       8.579e-01          -0.040           0.044          -0.998       1.706e-01          0.3334
 900       2.157e+01       3.181e+01       8.445e-01           0.123          -0.022          -0.992       2.265e-01          0.2966
 901       2.126e+01       3.181e+01       7.902e-01           0.210          -0.059          -0.976       2.727e-01          0.1975
 902       2.090e+01       3.181e+01       7.184e-01           0.186          -0.049          -0.981       2.974e-01          0.0753
 903       2.052e+01       3.181e+01       6.665e-01           0.086          -0.001          -0.996       3.013e-01          0.0360
 904       2.015e+01       3.181e+01       6.479e-01           0.011           0.037          -0.999       2.915e-01          0.1063
 905       1.979e+01       3.181e+01       6.536e-01          -0.045           0.066          -0.997       2.663e-01          0.2291
 906       1.948e+01       3.181e+01       6.754e-01          -0.098           0.095          -0.991       2.263e-01          0.3870
 907       1.923e+01       3.181e+01       7.092e-01          -0.178           0.139          -0.974       1.745e-01          0.5821
 908       1.905e+01       3.181e+01       7.569e-01          -0.370           0.248          -0.895       1.181e-01          0.6554
 909       1.896e+01       3.181e+01       8.254e-01          -0.772           0.471          -0.426       8.271e-02         -0.7246
 910       1.896e+01       3.180e+01       9.069e-01          -0.773           0.448           0.448       8.258e-02         -3.9749
 911       1.905e+01       3.180e+01       9.756e-01          -0.372           0.201           0.906       1.180e-01         -4.3240
 912       1.923e+01       3.180e+01       1.023e+00          -0.177           0.086           0.981       1.741e-01         -2.3193
 913       1.948e+01       3.180e+01       1.057e+00          -0.098           0.041           0.994       2.260e-01         -1.4761
 914       1.979e+01       3.180e+01       1.079e+00          -0.044           0.011           0.999       2.659e-01         -1.0801
 915       2.015e+01       3.180e+01       1.086e+00          -0.002          -0.011           1.000       2.911e-01         -0.8392
 916       2.052e+01       3.180e+01       1.080e+00           0.035          -0.029           0.999       3.000e-01         -0.6823
 917       2.090e+01       3.180e+01       1.059e+00           0.078          -0.049           0.996       2.921e-01         -0.5684
 918       2.126e+01       3.180e+01       1.022e+00           0.131          -0.073           0.989       2.682e-01         -0.4553
 919       2.157e+01       3.180e+01       9.721e-01           0.189          -0.097           0.977       2.292e-01         -0.3245
 920       2.182e+01       3.180e+01       9.174e-01           0.240          -0.117           0.964       1.764e-01         -0.1734
 921       2.200e+01       3.180e+01       8.705e-01           0.280          -0.132           0.951       1.115e-01         -0.0659
 922       2.209e+01       3.181e+01       8.378e-01           0.479          -0.205           0.854       4.213e-02          0.2113
Strip 36
 923       2.234e+01       3.248e+01       8.460e-01          -0.040           0.045          -0.998       2.481e-02         -0.0331
 924       2.225e+01       3.248e+01       8.597e-01          -0.193           0.102          -0.976       7.455e-02          0.1458
 925       2.209e+01       3.248e+01       8.766e-01          -0.040           0.044          -0.998       1.169e-01          0.2088
 926       2.185e+01       3.248e+01       8.638e-01           0.123          -0.022          -0.992       1.553e-01          0.1788
 927       2.155e+01       3.248e+01       8.121e-01           0.210          -0.059          -0.976       1.869e-01          0.0942
 928       2.121e+01       3.248e+01       7.437e-01           0.186          -0.049          -0.981       2.038e-01         -0.0164
 929       2.085e+01       3.248e+01       6.942e-01           0.086          -0.001          -0.996       2.066e-01         -0.0555
 930       2.049e+01       3.248e+01       6.765e-01           0.011           0.037          -0.999       1.998e-01          0.0061
 931       2.015e+01       3.248e+01       6.820e-01          -0.045           0.066          -0.997       1.825e-01          0.1206
 932       1.985e+01       3.248e+01       7.027e-01          -0.098           0.095          -0.991       1.551e-01          0.2802
 933       1.961e+01       3.248e+01       7.350e-01          -0.178           0.139          -0.974       1.196e-01          0.4929
 934       1.944e+01       3.248e+01       7.803e-01          -0.370           0.248          -0.895       8.091e-02          0.6401
 935       1.936e+01       3.248e+01       8.457e-01          -0.772           0.471          -0.426       5.667e-02         -0.5092
 936       1.936e+01       3.248e+01       9.233e-01          -0.773           0.448           0.449       5.662e-02         -3.5202
 937       1.944e+01       3.248e+01       9.888e-01          -0.372           0.201           0.906       8.089e-02         -3.9310
 938       1.961e+01       3.247e+01       1.034e+00          -0.177           0.086           0.981       1.194e-01         -2.0947
 939       1.985e+01       3.247e+01       1.066e+00          -0.098           0.041           0.994       1.549e-01         -1.3097
 940       2.015e+01       3.247e+01       1.087e+00          -0.044           0.011           0.999       1.823e-01         -0.9426
 941       2.049e+01       3.247e+01       1.094e+00          -0.002          -0.011           1.000       1.995e-01         -0.7302
 942       2.085e+01       3.247e+01       1.088e+00           0.035          -0.029           0.999       2.056e-01         -0.6056
 943       2.121e+01       3.247e+01       1.068e+00           0.078          -0.049           0.996       2.002e-01         -0.5253
 944       2.155e+01       3.247e+01       1.033e+00           0.131          -0.073           0.989       1.838e-01         -0.4462
 945       2.185e+01       3.248e+01       9.854e-01           0.189          -0.097           0.977       1.571e-01         -0.3504
 946       2.209e+01       3.248e+01       9.334e-01           0.240          -0.117           0.964       1.209e-01         -0.2275
 947       2.225e+01       3.248e+01       8.886e-01           0.280          -0.132           0.951       7.643e-02         -0.1376
 948       2.234e+01       3.248e+01       8.574e-01           0.479          -0.205           0.854       2.887e-02          0.1515
Strip 37
 949       2.251e+01       3.293e+01       8.596e-01          -0.040           0.045          -0.998       1.446e-02         -0.4855
 950       2.243e+01       3.293e+01       8.728e-01          -0.193           0.102          -0.976       4.344e-02         -0.3825
 951       2.226e+01       3.293e+01       8.892e-01          -0.040           0.044          -0.998       6.814e-02         -0.2886
 952       2.203e+01       3.293e+01       8.768e-01           0.123          -0.022          -0.992       9.049e-02         -0.1962
 953       2.174e+01       3.293e+01       8.268e-01           0.210          -0.059          -0.976       1.089e-01         -0.1457
 954       2.142e+01       3.293e+01       7.607e-01           0.186          -0.049          -0.981       1.188e-01         -0.1678
 955       2.107e+01       3.293e+01       7.128e-01           0.086          -0.001          -0.996       1.204e-01         -0.1753
 956       2.072e+01       3.293e+01       6.957e-01           0.011           0.037          -0.999       1.164e-01         -0.1212
 957       2.039e+01       3.293e+01       7.010e-01          -0.045           0.066          -0.997       1.064e-01         -0.0375
 958       2.010e+01       3.293e+01       7.210e-01          -0.098           0.095          -0.991       9.038e-02          0.0851
 959       1.987e+01       3.293e+01       7.522e-01          -0.178           0.139          -0.974       6.967e-02          0.2834
 960       1.971e+01       3.293e+01       7.961e-01          -0.370           0.248          -0.895       4.715e-02          0.5056
 961       1.963e+01       3.293e+01       8.593e-01          -0.773           0.472          -0.425       3.302e-02         -0.3090
 962       1.963e+01       3.293e+01       9.343e-01          -0.773           0.448           0.450       3.301e-02         -2.8960
 963       1.971e+01       3.293e+01       9.977e-01          -0.372           0.201           0.906       4.715e-02         -3.3466
 964       1.987e+01       3.293e+01       1.042e+00          -0.176           0.086           0.981       6.958e-02         -1.7432
 965       2.010e+01       3.292e+01       1.073e+00          -0.098           0.041           0.994       9.028e-02         -1.0670
 966       2.039e+01       3.292e+01       1.092e+00          -0.044           0.011           0.999       1.062e-01         -0.7817
 967       2.072e+01       3.292e+01       1.100e+00          -0.002          -0.011           1.000       1.163e-01         -0.6408
 968       2.107e+01       3.292e+01       1.094e+00           0.035          -0.029           0.999       1.198e-01         -0.5776
 969       2.142e+01       3.292e+01       1.074e+00           0.078          -0.049           0.996       1.167e-01         -0.5661
 970       2.174e+01       3.293e+01       1.040e+00           0.131          -0.073           0.989       1.071e-01         -0.5845
 971       2.203e+01       3.293e+01       9.944e-01           0.189          -0.097           0.977       9.155e-02         -0.6223
 972       2.226e+01       3.293e+01       9.440e-01           0.240          -0.117           0.964       7.043e-02         -0.6351
 973       2.243e+01       3.293e+01       9.008e-01           0.280          -0.132           0.951       4.454e-02         -0.6165
 974       2.251e+01       3.293e+01       8.706e-01           0.479          -0.205           0.854       1.682e-02         -0.3000
Strip 38
 975       2.259e+01       3.316e+01       8.664e-01          -0.040           0.045          -0.998       4.748e-03         -1.0470
 976       2.251e+01       3.316e+01       8.794e-01          -0.193           0.102          -0.976       1.426e-02         -1.0638
 977       2.235e+01       3.316e+01       8.955e-01          -0.040           0.044          -0.998       2.237e-02         -0.9531
 978       2.212e+01       3.316e+01       8.833e-01           0.123          -0.022          -0.992       2.972e-02         -0.7072
 979       2.184e+01       3.316e+01       8.342e-01           0.210          -0.059          -0.976       3.578e-02         -0.4676
 980       2.152e+01       3.316e+01       7.692e-01           0.186          -0.049          -0.981       3.901e-02         -0.3339
 981       2.118e+01       3.316e+01       7.221e-01           0.086          -0.001          -0.996       3.953e-02         -0.2634
 982       2.084e+01       3.316e+01       7.053e-01           0.011           0.037          -0.999       3.823e-02         -0.1993
 983       2.051e+01       3.316e+01       7.105e-01          -0.045           0.066          -0.997       3.492e-02         -0.1363
 984       2.023e+01       3.316e+01       7.302e-01          -0.098           0.095          -0.991       2.968e-02         -0.0510
 985       2.000e+01       3.316e+01       7.609e-01          -0.178           0.139          -0.974       2.287e-02          0.1072
 986       1.984e+01       3.316e+01       8.040e-01          -0.370           0.248          -0.895       1.548e-02          0.3552
 987       1.976e+01       3.316e+01       8.661e-01          -0.773           0.472          -0.425       1.084e-02         -0.0723
 988       1.976e+01       3.315e+01       9.399e-01          -0.773           0.448           0.450       1.084e-02         -2.1030
 989       1.984e+01       3.315e+01       1.002e+00          -0.372           0.200           0.907       1.549e-02         -2.5897
 990       2.000e+01       3.315e+01       1.045e+00          -0.176           0.086           0.981       2.285e-02         -1.3327
 991       2.023e+01       3.315e+01       1.076e+00          -0.098           0.041           0.994       2.965e-02         -0.8471
 992       2.051e+01       3.315e+01       1.095e+00          -0.044           0.011           0.999       3.488e-02         -0.6722
 993       2.084e+01       3.315e+01       1.102e+00          -0.002          -0.011           1.000       3.819e-02         -0.5852
 994       2.118e+01       3.315e+01       1.097e+00           0.035          -0.029           0.999       3.935e-02         -0.5462
 995       2.152e+01       3.315e+01       1.078e+00           0.078          -0.049           0.996       3.831e-02         -0.5544
 996       2.184e+01       3.315e+01       1.044e+00           0.131          -0.073           0.989       3.517e-02         -0.6273
 997       2.212e+01       3.315e+01       9.989e-01           0.189          -0.097           0.977       3.006e-02         -0.7996
 998       2.235e+01       3.315e+01       9.494e-01           0.240          -0.117           0.964       2.313e-02         -1.0340
 999       2.251e+01       3.316e+01       9.069e-01           0.280          -0.132           0.951       1.462e-02         -1.1479
1000       2.259e+01       3.316e+01       8.772e-01           0.479          -0.205           0.854       5.523e-03         -0.8495










